/*---------------------------------------------------------------------------*\
  =========                 |
  \\      /  F ield         | OpenFOAM: The Open Source CFD Toolbox
   \\    /   O peration     | Website:  https://openfoam.org
    \\  /    A nd           | Version:  8
     \\/     M anipulation  |
\*---------------------------------------------------------------------------*/
Build  : 8-1ac1210412fb
Exec   : reactingFoam -parallel
Date   : Aug 21 2020
Time   : 23:44:04
Host   : "t20204-lr010"
PID    : 16137
I/O    : uncollated
Case   : /u/97/tekgulb1/data/Documents/OpenFOAM-Aalto/tutorials/reactingFoam/counterFlowFlame2D_GRI_pyJac
nProcs : 4
Slaves : 
3
(
"t20204-lr010.16138"
"t20204-lr010.16139"
"t20204-lr010.16140"
)

Pstream initialized with:
    floatTransfer      : 0
    nProcsSimpleSum    : 0
    commsType          : nonBlocking
    polling iterations : 0
sigFpe : Enabling floating point exception trapping (FOAM_SIGFPE).
fileModificationChecking : Monitoring run-time modified files using timeStampMaster (fileModificationSkew 10)
allowSystemOperations : Allowing user-supplied system call operations

// * * * * * * * * * * * * * * * * * * * * * * * * * * * * * * * * * * * * * //
Create time

Create mesh for time = 0


PIMPLE: No convergence criteria found


PIMPLE: Operating solver in transient mode with 1 outer corrector
PIMPLE: Operating solver in PISO mode


Reading thermophysical properties

Selecting thermodynamics package 
{
    type            hePsiThermo;
    mixture         multiComponentMixture;
    transport       sutherland;
    thermo          janaf;
    energy          sensibleEnthalpy;
    equationOfState perfectGas;
    specie          specie;
}

Reading field U

Reading/calculating face flux field phi

Creating turbulence model.

Selecting turbulence model type laminar
Selecting laminar stress model Stokes
Creating thermophysical transport model

Selecting thermophysical transport type laminar
Selecting default laminar thermophysical transport model Fourier
Creating reaction model

Selecting combustion model laminar
Selecting chemistry solver 
{
    solver          ode_pyJac;
    method          loadBalanced_pyJac;
}

StandardChemistryModel: Number of species = 53 and reactions = 0
    Oxidizer:
    speciesMassFractions:
        Y(O2) = 0.23
        Y(N2) = 0.77
    elementMassFractions:
        Z(C) = 0
        Z(H) = 0
        Z(O) = 0.23

    Fuel:
    speciesMassFractions:
        Y(CH4) = 1
    elementMassFractions:
        Z(C) = 0.748685
        Z(H) = 0.251317
        Z(O) = 0

    Stoichiomentric mixture fraction Zst = 0.0545136
Running with a load balanced
Selecting ODE solver seulex
    using integrated reaction rate
Creating field dpdt

Creating field kinetic energy K

No MRF models present

No finite volume options present
Courant Number mean: 2.7341e-06 max: 8.78405e-05



Starting time loop

volFieldValue volFieldValue1 write:
    sum() of T = 2e+06

Courant Number mean: 2.7341e-06 max: 8.78405e-05
deltaT = 1.2e-07
Time = 1.2e-07

diagonal:  Solving for rho, Initial residual = 0, Final residual = 0, No Iterations 0
[0] Rank: 0 does not take part in balancing.DILUPBiCGStab:  Solving for CH4, Initial residual = 1, Final residual = 2.89646e-08, No Iterations 1
DILUPBiCGStab:  Solving for CH2O, Initial residual = 0, Final residual = 0, No Iterations 0
DILUPBiCGStab:  Solving for CH3O, Initial residual = 0, Final residual = 0, No Iterations 0
DILUPBiCGStab:  Solving for H, Initial residual = 0, Final residual = 0, No Iterations 0
DILUPBiCGStab:  Solving for O2, Initial residual = 1, Final residual = 2.89591e-08, No Iterations 1
DILUPBiCGStab:  Solving for H2, Initial residual = 0, Final residual = 0, No Iterations 0
DILUPBiCGStab:  Solving for O, Initial residual = 0, Final residual = 0, No Iterations 0
DILUPBiCGStab:  Solving for OH, Initial residual = 0, Final residual = 0, No Iterations 0
DILUPBiCGStab:  Solving for H2O, Initial residual = 0, Final residual = 0, No Iterations 0
DILUPBiCGStab:  Solving for HO2, Initial residual = 0, Final residual = 0, No Iterations 0
DILUPBiCGStab:  Solving for H2O2, Initial residual = 0, Final residual = 0, No Iterations 0
DILUPBiCGStab:  Solving for C, Initial residual = 0, Final residual = 0, No Iterations 0
DILUPBiCGStab:  Solving for CH, Initial residual = 0, Final residual = 0, No Iterations 0
DILUPBiCGStab:  Solving for CH2, Initial residual = 0, Final residual = 0, No Iterations 0
DILUPBiCGStab:  Solving for CH2(S), Initial residual = 0, Final residual = 0, No Iterations 0
DILUPBiCGStab:  Solving for CH3, Initial residual = 0, Final residual = 0, No Iterations 0
DILUPBiCGStab:  Solving for CO, Initial residual = 0, Final residual = 0, No Iterations 0
DILUPBiCGStab:  Solving for CO2, Initial residual = 0, Final residual = 0, No Iterations 0
DILUPBiCGStab:  Solving for HCO, Initial residual = 0, Final residual = 0, No Iterations 0
DILUPBiCGStab:  Solving for CH2OH, Initial residual = 0, Final residual = 0, No Iterations 0
DILUPBiCGStab:  Solving for CH3OH, Initial residual = 0, Final residual = 0, No Iterations 0
DILUPBiCGStab:  Solving for C2H, Initial residual = 0, Final residual = 0, No Iterations 0
DILUPBiCGStab:  Solving for C2H2, Initial residual = 0, Final residual = 0, No Iterations 0
DILUPBiCGStab:  Solving for C2H3, Initial residual = 0, Final residual = 0, No Iterations 0
DILUPBiCGStab:  Solving for C2H4, Initial residual = 0, Final residual = 0, No Iterations 0
DILUPBiCGStab:  Solving for C2H5, Initial residual = 0, Final residual = 0, No Iterations 0
DILUPBiCGStab:  Solving for C2H6, Initial residual = 0, Final residual = 0, No Iterations 0
DILUPBiCGStab:  Solving for HCCO, Initial residual = 0, Final residual = 0, No Iterations 0
DILUPBiCGStab:  Solving for CH2CO, Initial residual = 0, Final residual = 0, No Iterations 0
DILUPBiCGStab:  Solving for HCCOH, Initial residual = 0, Final residual = 0, No Iterations 0
DILUPBiCGStab:  Solving for N, Initial residual = 0, Final residual = 0, No Iterations 0
DILUPBiCGStab:  Solving for NH, Initial residual = 0, Final residual = 0, No Iterations 0
DILUPBiCGStab:  Solving for NH2, Initial residual = 0, Final residual = 0, No Iterations 0
DILUPBiCGStab:  Solving for NH3, Initial residual = 0, Final residual = 0, No Iterations 0
DILUPBiCGStab:  Solving for NNH, Initial residual = 0, Final residual = 0, No Iterations 0
DILUPBiCGStab:  Solving for NO, Initial residual = 0, Final residual = 0, No Iterations 0
DILUPBiCGStab:  Solving for NO2, Initial residual = 0, Final residual = 0, No Iterations 0
DILUPBiCGStab:  Solving for N2O, Initial residual = 0, Final residual = 0, No Iterations 0
DILUPBiCGStab:  Solving for HNO, Initial residual = 0, Final residual = 0, No Iterations 0
DILUPBiCGStab:  Solving for CN, Initial residual = 0, Final residual = 0, No Iterations 0
DILUPBiCGStab:  Solving for HCN, Initial residual = 0, Final residual = 0, No Iterations 0
DILUPBiCGStab:  Solving for H2CN, Initial residual = 0, Final residual = 0, No Iterations 0
DILUPBiCGStab:  Solving for HCNN, Initial residual = 0, Final residual = 0, No Iterations 0
DILUPBiCGStab:  Solving for HCNO, Initial residual = 0, Final residual = 0, No Iterations 0
DILUPBiCGStab:  Solving for HOCN, Initial residual = 0, Final residual = 0, No Iterations 0
DILUPBiCGStab:  Solving for HNCO, Initial residual = 0, Final residual = 0, No Iterations 0
DILUPBiCGStab:  Solving for NCO, Initial residual = 0, Final residual = 0, No Iterations 0
DILUPBiCGStab:  Solving for AR, Initial residual = 0, Final residual = 0, No Iterations 0
DILUPBiCGStab:  Solving for C3H7, Initial residual = 0, Final residual = 0, No Iterations 0
DILUPBiCGStab:  Solving for C3H8, Initial residual = 0, Final residual = 0, No Iterations 0
DILUPBiCGStab:  Solving for CH2CHO, Initial residual = 0, Final residual = 0, No Iterations 0
DILUPBiCGStab:  Solving for CH3CHO, Initial residual = 0, Final residual = 0, No Iterations 0
DILUPBiCGStab:  Solving for h, Initial residual = 1, Final residual = 2.89615e-08, No Iterations 1
min/max(T) = 293, 2000
DICPCG:  Solving for p, Initial residual = 1, Final residual = 0.000419731, No Iterations 1
diagonal:  Solving for rho, Initial residual = 0, Final residual = 0, No Iterations 0
time step continuity errors : sum local = 7.08717e-09, global = -6.45303e-09, cumulative = -6.45303e-09
DICPCG:  Solving for p, Initial residual = 0.000132846, Final residual = 7.93057e-08, No Iterations 1
diagonal:  Solving for rho, Initial residual = 0, Final residual = 0, No Iterations 0
time step continuity errors : sum local = 5.13695e-12, global = -3.49226e-12, cumulative = -6.45653e-09
ExecutionTime = 1.05 s  ClockTime = 1 s

volFieldValue volFieldValue1 write:
    sum() of T = 1.99994e+06

Courant Number mean: 4.14926e-06 max: 0.000109918
deltaT = 1.44e-07
Time = 2.64e-07

diagonal:  Solving for rho, Initial residual = 0, Final residual = 0, No Iterations 0
[1] Rank: 1 does not take part in balancing.Receiver rank: 1 receives from "(2 1 )" own problems "(250 )"
[2] Rank: 2 does not take part in balancing.Sender rank: 2 sends to: "(3 1 0 2 )" counts: "(25 13 8 204 )" remaining problems:  204
[3] Rank: 3 does not take part in balancing.Receiver rank: 3 receives from "(2 3 )" own problems "(250 )"
Receiver rank: 0 receives from "(2 0 )" own problems "(250 )"
DILUPBiCGStab:  Solving for CH4, Initial residual = 0.234291, Final residual = 9.75968e-09, No Iterations 1
DILUPBiCGStab:  Solving for CH2O, Initial residual = 0, Final residual = 0, No Iterations 0
DILUPBiCGStab:  Solving for CH3O, Initial residual = 0, Final residual = 0, No Iterations 0
DILUPBiCGStab:  Solving for H, Initial residual = 1, Final residual = 4.16564e-08, No Iterations 1
DILUPBiCGStab:  Solving for O2, Initial residual = 0.23432, Final residual = 9.76913e-09, No Iterations 1
DILUPBiCGStab:  Solving for H2, Initial residual = 1, Final residual = 4.16401e-08, No Iterations 1
DILUPBiCGStab:  Solving for O, Initial residual = 0.999997, Final residual = 4.16912e-08, No Iterations 1
DILUPBiCGStab:  Solving for OH, Initial residual = 0, Final residual = 0, No Iterations 0
DILUPBiCGStab:  Solving for H2O, Initial residual = 0, Final residual = 0, No Iterations 0
DILUPBiCGStab:  Solving for HO2, Initial residual = 0, Final residual = 0, No Iterations 0
DILUPBiCGStab:  Solving for H2O2, Initial residual = 0, Final residual = 0, No Iterations 0
DILUPBiCGStab:  Solving for C, Initial residual = 0.141761, Final residual = 5.90294e-09, No Iterations 1
DILUPBiCGStab:  Solving for CH, Initial residual = 0.999993, Final residual = 4.16566e-08, No Iterations 1
DILUPBiCGStab:  Solving for CH2, Initial residual = 0.999992, Final residual = 4.16549e-08, No Iterations 1
DILUPBiCGStab:  Solving for CH2(S), Initial residual = 0.999873, Final residual = 4.16444e-08, No Iterations 1
DILUPBiCGStab:  Solving for CH3, Initial residual = 1, Final residual = 4.16563e-08, No Iterations 1
DILUPBiCGStab:  Solving for CO, Initial residual = 0, Final residual = 0, No Iterations 0
DILUPBiCGStab:  Solving for CO2, Initial residual = 0, Final residual = 0, No Iterations 0
DILUPBiCGStab:  Solving for HCO, Initial residual = 0, Final residual = 0, No Iterations 0
DILUPBiCGStab:  Solving for CH2OH, Initial residual = 0, Final residual = 0, No Iterations 0
DILUPBiCGStab:  Solving for CH3OH, Initial residual = 0, Final residual = 0, No Iterations 0
DILUPBiCGStab:  Solving for C2H, Initial residual = 0, Final residual = 0, No Iterations 0
DILUPBiCGStab:  Solving for C2H2, Initial residual = 0, Final residual = 0, No Iterations 0
DILUPBiCGStab:  Solving for C2H3, Initial residual = 0.0546484, Final residual = 2.27556e-09, No Iterations 1
DILUPBiCGStab:  Solving for C2H4, Initial residual = 0.999624, Final residual = 4.16244e-08, No Iterations 1
DILUPBiCGStab:  Solving for C2H5, Initial residual = 0.999818, Final residual = 4.16325e-08, No Iterations 1
DILUPBiCGStab:  Solving for C2H6, Initial residual = 0.999607, Final residual = 4.16237e-08, No Iterations 1
DILUPBiCGStab:  Solving for HCCO, Initial residual = 0, Final residual = 0, No Iterations 0
DILUPBiCGStab:  Solving for CH2CO, Initial residual = 0, Final residual = 0, No Iterations 0
DILUPBiCGStab:  Solving for HCCOH, Initial residual = 0, Final residual = 0, No Iterations 0
DILUPBiCGStab:  Solving for N, Initial residual = 0.997861, Final residual = 4.15675e-08, No Iterations 1
DILUPBiCGStab:  Solving for NH, Initial residual = 0.00848696, Final residual = 3.53538e-10, No Iterations 1
DILUPBiCGStab:  Solving for NH2, Initial residual = 8.9355e-14, Final residual = 8.9355e-14, No Iterations 0
DILUPBiCGStab:  Solving for NH3, Initial residual = 3.78838e-25, Final residual = 3.78838e-25, No Iterations 0
DILUPBiCGStab:  Solving for NNH, Initial residual = 1, Final residual = 4.16564e-08, No Iterations 1
DILUPBiCGStab:  Solving for NO, Initial residual = 0.143827, Final residual = 5.99635e-09, No Iterations 1
DILUPBiCGStab:  Solving for NO2, Initial residual = 4.62433e-11, Final residual = 4.62433e-11, No Iterations 0
DILUPBiCGStab:  Solving for N2O, Initial residual = 0.999994, Final residual = 4.1691e-08, No Iterations 1
DILUPBiCGStab:  Solving for HNO, Initial residual = 0, Final residual = 0, No Iterations 0
DILUPBiCGStab:  Solving for CN, Initial residual = 4.52188e-05, Final residual = 1.88291e-12, No Iterations 1
DILUPBiCGStab:  Solving for HCN, Initial residual = 0.99889, Final residual = 4.16104e-08, No Iterations 1
DILUPBiCGStab:  Solving for H2CN, Initial residual = 0.00415315, Final residual = 1.72995e-10, No Iterations 1
DILUPBiCGStab:  Solving for HCNN, Initial residual = 0.994363, Final residual = 4.14218e-08, No Iterations 1
DILUPBiCGStab:  Solving for HCNO, Initial residual = 0, Final residual = 0, No Iterations 0
DILUPBiCGStab:  Solving for HOCN, Initial residual = 0, Final residual = 0, No Iterations 0
DILUPBiCGStab:  Solving for HNCO, Initial residual = 0, Final residual = 0, No Iterations 0
DILUPBiCGStab:  Solving for NCO, Initial residual = 0, Final residual = 0, No Iterations 0
DILUPBiCGStab:  Solving for AR, Initial residual = 0, Final residual = 0, No Iterations 0
DILUPBiCGStab:  Solving for C3H7, Initial residual = 1.67991e-06, Final residual = 6.99514e-14, No Iterations 1
DILUPBiCGStab:  Solving for C3H8, Initial residual = 3.16166e-06, Final residual = 1.31652e-13, No Iterations 1
DILUPBiCGStab:  Solving for CH2CHO, Initial residual = 0, Final residual = 0, No Iterations 0
DILUPBiCGStab:  Solving for CH3CHO, Initial residual = 0, Final residual = 0, No Iterations 0
DILUPBiCGStab:  Solving for h, Initial residual = 0.394284, Final residual = 2.5043e-09, No Iterations 1
min/max(T) = 293, 2000
DICPCG:  Solving for p, Initial residual = 0.357804, Final residual = 0.0011648, No Iterations 1
diagonal:  Solving for rho, Initial residual = 0, Final residual = 0, No Iterations 0
time step continuity errors : sum local = 1.12257e-07, global = -8.17445e-08, cumulative = -8.8201e-08
DICPCG:  Solving for p, Initial residual = 0.000621068, Final residual = 7.10557e-07, No Iterations 2
diagonal:  Solving for rho, Initial residual = 0, Final residual = 0, No Iterations 0
time step continuity errors : sum local = 1.23076e-10, global = 2.53151e-11, cumulative = -8.81757e-08
ExecutionTime = 1.62 s  ClockTime = 2 s

volFieldValue volFieldValue1 write:
    sum() of T = 1.99985e+06

Courant Number mean: 9.15761e-06 max: 0.000275206
deltaT = 1.728e-07
Time = 4.36799e-07

diagonal:  Solving for rho, Initial residual = 0, Final residual = 0, No Iterations 0
[3] Sender rank: 3 sends to: "(2 3 )" counts: "(8 242 )" remaining problems:  242
[1] Sender rank: 1 sends to: "(0 2 1 )" counts: "(66 10 174 )" remaining problems:  174
[2] Receiver rank: 2 receives from "(1 3 2 )" own problems "(250 )"
[0] Receiver rank: 0 receives from "(1 0 )" own problems "(250 )"
DILUPBiCGStab:  Solving for CH4, Initial residual = 0.14296, Final residual = 8.55708e-09, No Iterations 1
DILUPBiCGStab:  Solving for CH2O, Initial residual = 0, Final residual = 0, No Iterations 0
DILUPBiCGStab:  Solving for CH3O, Initial residual = 0, Final residual = 0, No Iterations 0
DILUPBiCGStab:  Solving for H, Initial residual = 0.393174, Final residual = 2.35378e-08, No Iterations 1
DILUPBiCGStab:  Solving for O2, Initial residual = 0.143025, Final residual = 8.59087e-09, No Iterations 1
DILUPBiCGStab:  Solving for H2, Initial residual = 0.752141, Final residual = 4.49827e-08, No Iterations 1
DILUPBiCGStab:  Solving for O, Initial residual = 0.399776, Final residual = 2.40172e-08, No Iterations 1
DILUPBiCGStab:  Solving for OH, Initial residual = 0, Final residual = 0, No Iterations 0
DILUPBiCGStab:  Solving for H2O, Initial residual = 0, Final residual = 0, No Iterations 0
DILUPBiCGStab:  Solving for HO2, Initial residual = 0, Final residual = 0, No Iterations 0
DILUPBiCGStab:  Solving for H2O2, Initial residual = 0, Final residual = 0, No Iterations 0
DILUPBiCGStab:  Solving for C, Initial residual = 0.756123, Final residual = 4.52269e-08, No Iterations 1
DILUPBiCGStab:  Solving for CH, Initial residual = 0.565548, Final residual = 3.38616e-08, No Iterations 1
DILUPBiCGStab:  Solving for CH2, Initial residual = 0.634403, Final residual = 3.79713e-08, No Iterations 1
DILUPBiCGStab:  Solving for CH2(S), Initial residual = 0.708115, Final residual = 4.23692e-08, No Iterations 1
DILUPBiCGStab:  Solving for CH3, Initial residual = 0.397536, Final residual = 2.37984e-08, No Iterations 1
DILUPBiCGStab:  Solving for CO, Initial residual = 0, Final residual = 0, No Iterations 0
DILUPBiCGStab:  Solving for CO2, Initial residual = 0, Final residual = 0, No Iterations 0
DILUPBiCGStab:  Solving for HCO, Initial residual = 0, Final residual = 0, No Iterations 0
DILUPBiCGStab:  Solving for CH2OH, Initial residual = 0, Final residual = 0, No Iterations 0
DILUPBiCGStab:  Solving for CH3OH, Initial residual = 0, Final residual = 0, No Iterations 0
DILUPBiCGStab:  Solving for C2H, Initial residual = 1.6768e-11, Final residual = 1.6768e-11, No Iterations 0
DILUPBiCGStab:  Solving for C2H2, Initial residual = 0.891921, Final residual = 5.33423e-08, No Iterations 1
DILUPBiCGStab:  Solving for C2H3, Initial residual = 0.619598, Final residual = 3.70607e-08, No Iterations 1
DILUPBiCGStab:  Solving for C2H4, Initial residual = 0.889872, Final residual = 5.32215e-08, No Iterations 1
DILUPBiCGStab:  Solving for C2H5, Initial residual = 0.843878, Final residual = 5.0473e-08, No Iterations 1
DILUPBiCGStab:  Solving for C2H6, Initial residual = 0.849754, Final residual = 5.08211e-08, No Iterations 1
DILUPBiCGStab:  Solving for HCCO, Initial residual = 0, Final residual = 0, No Iterations 0
DILUPBiCGStab:  Solving for CH2CO, Initial residual = 0, Final residual = 0, No Iterations 0
DILUPBiCGStab:  Solving for HCCOH, Initial residual = 0, Final residual = 0, No Iterations 0
DILUPBiCGStab:  Solving for N, Initial residual = 0.788367, Final residual = 4.71978e-08, No Iterations 1
DILUPBiCGStab:  Solving for NH, Initial residual = 0.0535743, Final residual = 3.20748e-09, No Iterations 1
DILUPBiCGStab:  Solving for NH2, Initial residual = 1.10026e-11, Final residual = 1.10026e-11, No Iterations 0
DILUPBiCGStab:  Solving for NH3, Initial residual = 2.01608e-21, Final residual = 2.01608e-21, No Iterations 0
DILUPBiCGStab:  Solving for NNH, Initial residual = 0.358743, Final residual = 2.14776e-08, No Iterations 1
DILUPBiCGStab:  Solving for NO, Initial residual = 0.331554, Final residual = 1.99191e-08, No Iterations 1
DILUPBiCGStab:  Solving for NO2, Initial residual = 1.30752e-09, Final residual = 1.30752e-09, No Iterations 0
DILUPBiCGStab:  Solving for N2O, Initial residual = 0.400176, Final residual = 2.40405e-08, No Iterations 1
DILUPBiCGStab:  Solving for HNO, Initial residual = 0, Final residual = 0, No Iterations 0
DILUPBiCGStab:  Solving for CN, Initial residual = 0.00178205, Final residual = 1.06596e-10, No Iterations 1
DILUPBiCGStab:  Solving for HCN, Initial residual = 0.788332, Final residual = 4.71957e-08, No Iterations 1
DILUPBiCGStab:  Solving for H2CN, Initial residual = 0.0429337, Final residual = 2.56938e-09, No Iterations 1
DILUPBiCGStab:  Solving for HCNN, Initial residual = 0.684566, Final residual = 4.09815e-08, No Iterations 1
DILUPBiCGStab:  Solving for HCNO, Initial residual = 0, Final residual = 0, No Iterations 0
DILUPBiCGStab:  Solving for HOCN, Initial residual = 0, Final residual = 0, No Iterations 0
DILUPBiCGStab:  Solving for HNCO, Initial residual = 0, Final residual = 0, No Iterations 0
DILUPBiCGStab:  Solving for NCO, Initial residual = 0, Final residual = 0, No Iterations 0
DILUPBiCGStab:  Solving for AR, Initial residual = 0, Final residual = 0, No Iterations 0
DILUPBiCGStab:  Solving for C3H7, Initial residual = 0.000424915, Final residual = 2.54168e-11, No Iterations 1
DILUPBiCGStab:  Solving for C3H8, Initial residual = 0.000813854, Final residual = 4.86762e-11, No Iterations 1
DILUPBiCGStab:  Solving for CH2CHO, Initial residual = 0, Final residual = 0, No Iterations 0
DILUPBiCGStab:  Solving for CH3CHO, Initial residual = 0, Final residual = 0, No Iterations 0
DILUPBiCGStab:  Solving for h, Initial residual = 0.198993, Final residual = 1.06704e-09, No Iterations 1
min/max(T) = 293, 2000
DICPCG:  Solving for p, Initial residual = 0.183685, Final residual = 0.000743536, No Iterations 1
diagonal:  Solving for rho, Initial residual = 0, Final residual = 0, No Iterations 0
time step continuity errors : sum local = 1.55227e-07, global = -1.04707e-07, cumulative = -1.92883e-07
DICPCG:  Solving for p, Initial residual = 0.000517002, Final residual = 1.34514e-08, No Iterations 3
diagonal:  Solving for rho, Initial residual = 0, Final residual = 0, No Iterations 0
time step continuity errors : sum local = 3.82961e-12, global = -1.92929e-12, cumulative = -1.92885e-07
ExecutionTime = 2.34 s  ClockTime = 3 s

volFieldValue volFieldValue1 write:
    sum() of T = 1.99973e+06

Courant Number mean: 1.9003e-05 max: 0.000579995
deltaT = 2.0736e-07
Time = 6.44159e-07

diagonal:  Solving for rho, Initial residual = 0, Final residual = 0, No Iterations 0
[2] Receiver rank: 2 receives from "(0 3 2 )" own problems "(250 )"
[3] Sender rank: 3 sends to: "(2 1 3 )" counts: "(9 4 237 )" remaining problems:  237
[1] Receiver rank: 1 receives from "(3 1 )" own problems "(250 )"
[0] Sender rank: 0 sends to: "(2 0 )" counts: "(17 233 )" remaining problems:  233
DILUPBiCGStab:  Solving for CH4, Initial residual = 0.107825, Final residual = 9.26754e-09, No Iterations 1
DILUPBiCGStab:  Solving for CH2O, Initial residual = 5.90836e-153, Final residual = 5.90836e-153, No Iterations 0
DILUPBiCGStab:  Solving for CH3O, Initial residual = 2.3563e-153, Final residual = 2.3563e-153, No Iterations 0
DILUPBiCGStab:  Solving for H, Initial residual = 0.255606, Final residual = 2.19794e-08, No Iterations 1
DILUPBiCGStab:  Solving for O2, Initial residual = 0.107945, Final residual = 9.33642e-09, No Iterations 1
DILUPBiCGStab:  Solving for H2, Initial residual = 0.547178, Final residual = 4.69709e-08, No Iterations 1
DILUPBiCGStab:  Solving for O, Initial residual = 0.26533, Final residual = 2.29575e-08, No Iterations 1
DILUPBiCGStab:  Solving for OH, Initial residual = 3.39672e-151, Final residual = 3.39672e-151, No Iterations 0
DILUPBiCGStab:  Solving for H2O, Initial residual = 4.19791e-158, Final residual = 4.19791e-158, No Iterations 0
DILUPBiCGStab:  Solving for HO2, Initial residual = 2.48793e-151, Final residual = 2.48793e-151, No Iterations 0
DILUPBiCGStab:  Solving for H2O2, Initial residual = 6.51074e-196, Final residual = 6.51074e-196, No Iterations 0
DILUPBiCGStab:  Solving for C, Initial residual = 0.73305, Final residual = 6.29407e-08, No Iterations 1
DILUPBiCGStab:  Solving for CH, Initial residual = 0.374785, Final residual = 3.22417e-08, No Iterations 1
DILUPBiCGStab:  Solving for CH2, Initial residual = 0.504104, Final residual = 4.33158e-08, No Iterations 1
DILUPBiCGStab:  Solving for CH2(S), Initial residual = 0.535833, Final residual = 4.60251e-08, No Iterations 1
DILUPBiCGStab:  Solving for CH3, Initial residual = 0.264133, Final residual = 2.27102e-08, No Iterations 1
DILUPBiCGStab:  Solving for CO, Initial residual = 4.00278e-156, Final residual = 4.00278e-156, No Iterations 0
DILUPBiCGStab:  Solving for CO2, Initial residual = 8.0158e-157, Final residual = 8.0158e-157, No Iterations 0
DILUPBiCGStab:  Solving for HCO, Initial residual = 7.94442e-156, Final residual = 7.94442e-156, No Iterations 0
DILUPBiCGStab:  Solving for CH2OH, Initial residual = 3.07411e-198, Final residual = 3.07411e-198, No Iterations 0
DILUPBiCGStab:  Solving for CH3OH, Initial residual = 7.40831e-197, Final residual = 7.40831e-197, No Iterations 0
DILUPBiCGStab:  Solving for C2H, Initial residual = 5.44736e-06, Final residual = 4.67664e-13, No Iterations 1
DILUPBiCGStab:  Solving for C2H2, Initial residual = 0.853157, Final residual = 7.32593e-08, No Iterations 1
DILUPBiCGStab:  Solving for C2H3, Initial residual = 0.719809, Final residual = 6.18049e-08, No Iterations 1
DILUPBiCGStab:  Solving for C2H4, Initial residual = 0.690263, Final residual = 5.92567e-08, No Iterations 1
DILUPBiCGStab:  Solving for C2H5, Initial residual = 0.6513, Final residual = 5.59145e-08, No Iterations 1
DILUPBiCGStab:  Solving for C2H6, Initial residual = 0.668814, Final residual = 5.74088e-08, No Iterations 1
DILUPBiCGStab:  Solving for HCCO, Initial residual = 6.01468e-172, Final residual = 6.01468e-172, No Iterations 0
DILUPBiCGStab:  Solving for CH2CO, Initial residual = 4.45135e-165, Final residual = 4.45135e-165, No Iterations 0
DILUPBiCGStab:  Solving for HCCOH, Initial residual = 5.43694e-211, Final residual = 5.43694e-211, No Iterations 0
DILUPBiCGStab:  Solving for N, Initial residual = 0.545295, Final residual = 4.68949e-08, No Iterations 1
DILUPBiCGStab:  Solving for NH, Initial residual = 0.165992, Final residual = 1.42726e-08, No Iterations 1
DILUPBiCGStab:  Solving for NH2, Initial residual = 3.7585e-10, Final residual = 3.7585e-10, No Iterations 0
DILUPBiCGStab:  Solving for NH3, Initial residual = 6.53769e-19, Final residual = 6.53769e-19, No Iterations 0
DILUPBiCGStab:  Solving for NNH, Initial residual = 0.236998, Final residual = 2.03814e-08, No Iterations 1
DILUPBiCGStab:  Solving for NO, Initial residual = 0.339262, Final residual = 2.93563e-08, No Iterations 1
DILUPBiCGStab:  Solving for NO2, Initial residual = 9.82513e-09, Final residual = 9.82513e-09, No Iterations 0
DILUPBiCGStab:  Solving for N2O, Initial residual = 0.265812, Final residual = 2.29978e-08, No Iterations 1
DILUPBiCGStab:  Solving for HNO, Initial residual = 3.09368e-165, Final residual = 3.09368e-165, No Iterations 0
DILUPBiCGStab:  Solving for CN, Initial residual = 0.0281052, Final residual = 2.41347e-09, No Iterations 1
DILUPBiCGStab:  Solving for HCN, Initial residual = 0.545271, Final residual = 4.68928e-08, No Iterations 1
DILUPBiCGStab:  Solving for H2CN, Initial residual = 0.224313, Final residual = 1.92675e-08, No Iterations 1
DILUPBiCGStab:  Solving for HCNN, Initial residual = 0.45131, Final residual = 3.88084e-08, No Iterations 1
DILUPBiCGStab:  Solving for HCNO, Initial residual = 7.75329e-173, Final residual = 7.75329e-173, No Iterations 0
DILUPBiCGStab:  Solving for HOCN, Initial residual = 5.37954e-207, Final residual = 5.37954e-207, No Iterations 0
DILUPBiCGStab:  Solving for HNCO, Initial residual = 2.28361e-172, Final residual = 2.28361e-172, No Iterations 0
DILUPBiCGStab:  Solving for NCO, Initial residual = 0, Final residual = 0, No Iterations 0
DILUPBiCGStab:  Solving for AR, Initial residual = 0, Final residual = 0, No Iterations 0
DILUPBiCGStab:  Solving for C3H7, Initial residual = 0.0104282, Final residual = 8.9549e-10, No Iterations 1
DILUPBiCGStab:  Solving for C3H8, Initial residual = 0.0213391, Final residual = 1.83185e-09, No Iterations 1
DILUPBiCGStab:  Solving for CH2CHO, Initial residual = 1.97509e-165, Final residual = 1.97509e-165, No Iterations 0
DILUPBiCGStab:  Solving for CH3CHO, Initial residual = 4.32879e-168, Final residual = 4.32879e-168, No Iterations 0
DILUPBiCGStab:  Solving for h, Initial residual = 0.138417, Final residual = 5.27798e-10, No Iterations 1
min/max(T) = 293, 2000
DICPCG:  Solving for p, Initial residual = 0.121406, Final residual = 0.000466585, No Iterations 1
diagonal:  Solving for rho, Initial residual = 0, Final residual = 0, No Iterations 0
time step continuity errors : sum local = 1.51005e-07, global = -7.99487e-08, cumulative = -2.72833e-07
DICPCG:  Solving for p, Initial residual = 0.000351248, Final residual = 7.10018e-07, No Iterations 2
diagonal:  Solving for rho, Initial residual = 0, Final residual = 0, No Iterations 0
time step continuity errors : sum local = 2.84651e-10, global = 1.37264e-11, cumulative = -2.72819e-07
ExecutionTime = 2.85 s  ClockTime = 4 s

volFieldValue volFieldValue1 write:
    sum() of T = 1.99959e+06

Courant Number mean: 3.59589e-05 max: 0.00105798
deltaT = 2.48831e-07
Time = 8.9299e-07

diagonal:  Solving for rho, Initial residual = 0, Final residual = 0, No Iterations 0
[1] Receiver rank: 1 receives from "(3 1 )" own problems "(250 )"
[2] Sender rank: 2 sends to: "(0 2 )" counts: "(38 212 )" remaining problems:  212
[3] Sender rank: 3 sends to: "(1 3 )" counts: "(50 200 )" remaining problems:  200
[0] Receiver rank: 0 receives from "(2 0 )" own problems "(250 )"
DILUPBiCGStab:  Solving for CH4, Initial residual = 0.0894021, Final residual = 1.10302e-08, No Iterations 1
DILUPBiCGStab:  Solving for CH2O, Initial residual = 2.52549e-147, Final residual = 2.52549e-147, No Iterations 0
DILUPBiCGStab:  Solving for CH3O, Initial residual = 7.8316e-148, Final residual = 7.8316e-148, No Iterations 0
DILUPBiCGStab:  Solving for H, Initial residual = 0.192868, Final residual = 2.38207e-08, No Iterations 1
DILUPBiCGStab:  Solving for O2, Initial residual = 0.0896007, Final residual = 1.11481e-08, No Iterations 1
DILUPBiCGStab:  Solving for H2, Initial residual = 0.43142, Final residual = 5.31383e-08, No Iterations 1
DILUPBiCGStab:  Solving for O, Initial residual = 0.206467, Final residual = 2.57053e-08, No Iterations 1
DILUPBiCGStab:  Solving for OH, Initial residual = 1.36126e-145, Final residual = 1.36126e-145, No Iterations 0
DILUPBiCGStab:  Solving for H2O, Initial residual = 8.83154e-152, Final residual = 8.83154e-152, No Iterations 0
DILUPBiCGStab:  Solving for HO2, Initial residual = 5.20704e-146, Final residual = 5.20704e-146, No Iterations 0
DILUPBiCGStab:  Solving for H2O2, Initial residual = 1.98621e-154, Final residual = 1.98621e-154, No Iterations 0
DILUPBiCGStab:  Solving for C, Initial residual = 0.612917, Final residual = 7.5527e-08, No Iterations 1
DILUPBiCGStab:  Solving for CH, Initial residual = 0.271121, Final residual = 3.35272e-08, No Iterations 1
DILUPBiCGStab:  Solving for CH2, Initial residual = 0.445879, Final residual = 5.49778e-08, No Iterations 1
DILUPBiCGStab:  Solving for CH2(S), Initial residual = 0.449405, Final residual = 5.53986e-08, No Iterations 1
DILUPBiCGStab:  Solving for CH3, Initial residual = 0.207149, Final residual = 2.55758e-08, No Iterations 1
DILUPBiCGStab:  Solving for CO, Initial residual = 4.06781e-150, Final residual = 4.06781e-150, No Iterations 0
DILUPBiCGStab:  Solving for CO2, Initial residual = 5.94072e-151, Final residual = 5.94072e-151, No Iterations 0
DILUPBiCGStab:  Solving for HCO, Initial residual = 4.62314e-150, Final residual = 4.62314e-150, No Iterations 0
DILUPBiCGStab:  Solving for CH2OH, Initial residual = 2.44221e-156, Final residual = 2.44221e-156, No Iterations 0
DILUPBiCGStab:  Solving for CH3OH, Initial residual = 3.71172e-155, Final residual = 3.71172e-155, No Iterations 0
DILUPBiCGStab:  Solving for C2H, Initial residual = 0.00028837, Final residual = 3.55509e-11, No Iterations 1
DILUPBiCGStab:  Solving for C2H2, Initial residual = 0.722531, Final residual = 8.90605e-08, No Iterations 1
DILUPBiCGStab:  Solving for C2H3, Initial residual = 0.617212, Final residual = 7.60609e-08, No Iterations 1
DILUPBiCGStab:  Solving for C2H4, Initial residual = 0.56249, Final residual = 6.92923e-08, No Iterations 1
DILUPBiCGStab:  Solving for C2H5, Initial residual = 0.52928, Final residual = 6.52049e-08, No Iterations 1
DILUPBiCGStab:  Solving for C2H6, Initial residual = 0.554549, Final residual = 6.82951e-08, No Iterations 1
DILUPBiCGStab:  Solving for HCCO, Initial residual = 1.80859e-164, Final residual = 1.80859e-164, No Iterations 0
DILUPBiCGStab:  Solving for CH2CO, Initial residual = 1.27023e-158, Final residual = 1.27023e-158, No Iterations 0
DILUPBiCGStab:  Solving for HCCOH, Initial residual = 2.70742e-166, Final residual = 2.70742e-166, No Iterations 0
DILUPBiCGStab:  Solving for N, Initial residual = 0.416823, Final residual = 5.14942e-08, No Iterations 1
DILUPBiCGStab:  Solving for NH, Initial residual = 0.319336, Final residual = 3.94149e-08, No Iterations 1
DILUPBiCGStab:  Solving for NH2, Initial residual = 7.86019e-09, Final residual = 7.86019e-09, No Iterations 0
DILUPBiCGStab:  Solving for NH3, Initial residual = 8.85488e-17, Final residual = 8.85488e-17, No Iterations 0
DILUPBiCGStab:  Solving for NNH, Initial residual = 0.181377, Final residual = 2.24058e-08, No Iterations 1
DILUPBiCGStab:  Solving for NO, Initial residual = 0.298491, Final residual = 3.71668e-08, No Iterations 1
DILUPBiCGStab:  Solving for NO2, Initial residual = 4.55066e-08, Final residual = 4.55066e-08, No Iterations 0
DILUPBiCGStab:  Solving for N2O, Initial residual = 0.207026, Final residual = 2.57721e-08, No Iterations 1
DILUPBiCGStab:  Solving for HNO, Initial residual = 3.61306e-159, Final residual = 3.61306e-159, No Iterations 0
DILUPBiCGStab:  Solving for CN, Initial residual = 0.203363, Final residual = 2.50652e-08, No Iterations 1
DILUPBiCGStab:  Solving for HCN, Initial residual = 0.416818, Final residual = 5.14936e-08, No Iterations 1
DILUPBiCGStab:  Solving for H2CN, Initial residual = 0.469088, Final residual = 5.78144e-08, No Iterations 1
DILUPBiCGStab:  Solving for HCNN, Initial residual = 0.321786, Final residual = 3.97529e-08, No Iterations 1
DILUPBiCGStab:  Solving for HCNO, Initial residual = 1.79422e-166, Final residual = 1.79422e-166, No Iterations 0
DILUPBiCGStab:  Solving for HOCN, Initial residual = 1.04657e-164, Final residual = 1.04657e-164, No Iterations 0
DILUPBiCGStab:  Solving for HNCO, Initial residual = 1.93148e-165, Final residual = 1.93148e-165, No Iterations 0
DILUPBiCGStab:  Solving for NCO, Initial residual = 1.69378e-160, Final residual = 1.69378e-160, No Iterations 0
DILUPBiCGStab:  Solving for AR, Initial residual = 0, Final residual = 0, No Iterations 0
DILUPBiCGStab:  Solving for C3H7, Initial residual = 0.108958, Final residual = 1.34294e-08, No Iterations 1
DILUPBiCGStab:  Solving for C3H8, Initial residual = 0.214685, Final residual = 2.64427e-08, No Iterations 1
DILUPBiCGStab:  Solving for CH2CHO, Initial residual = 4.43726e-159, Final residual = 4.43726e-159, No Iterations 0
DILUPBiCGStab:  Solving for CH3CHO, Initial residual = 1.14498e-160, Final residual = 1.14498e-160, No Iterations 0
DILUPBiCGStab:  Solving for h, Initial residual = 0.11812, Final residual = 6.66173e-10, No Iterations 1
min/max(T) = 293, 2000
DICPCG:  Solving for p, Initial residual = 0.0997092, Final residual = 0.000548353, No Iterations 1
diagonal:  Solving for rho, Initial residual = 0, Final residual = 0, No Iterations 0
time step continuity errors : sum local = 2.4098e-07, global = -1.19152e-07, cumulative = -3.91971e-07
DICPCG:  Solving for p, Initial residual = 0.000495796, Final residual = 8.3048e-07, No Iterations 2
diagonal:  Solving for rho, Initial residual = 0, Final residual = 0, No Iterations 0
time step continuity errors : sum local = 4.30158e-10, global = 5.44749e-11, cumulative = -3.91917e-07
ExecutionTime = 3.24 s  ClockTime = 5 s

volFieldValue volFieldValue1 write:
    sum() of T = 1.99942e+06

Courant Number mean: 6.40652e-05 max: 0.00171203
deltaT = 2.98597e-07
Time = 1.19159e-06

diagonal:  Solving for rho, Initial residual = 0, Final residual = 0, No Iterations 0
[3] Sender rank: 3 sends to: "(2 1 3 )" counts: "(16 0 234 )" remaining problems:  234
[1] Receiver rank: 1 receives from "(3 1 )" own problems "(250 )"
[2] Receiver rank: 2 receives from "(0 3 2 )" own problems "(250 )"
[0] Sender rank: 0 sends to: "(2 0 )" counts: "(21 229 )" remaining problems:  229
DILUPBiCGStab:  Solving for CH4, Initial residual = 0.0781695, Final residual = 1.38597e-08, No Iterations 1
DILUPBiCGStab:  Solving for CH2O, Initial residual = 3.39655e-142, Final residual = 3.39655e-142, No Iterations 0
DILUPBiCGStab:  Solving for CH3O, Initial residual = 8.56864e-143, Final residual = 8.56864e-143, No Iterations 0
DILUPBiCGStab:  Solving for H, Initial residual = 0.154718, Final residual = 2.74851e-08, No Iterations 1
DILUPBiCGStab:  Solving for O2, Initial residual = 0.0784621, Final residual = 1.40675e-08, No Iterations 1
DILUPBiCGStab:  Solving for H2, Initial residual = 0.359999, Final residual = 6.36919e-08, No Iterations 1
DILUPBiCGStab:  Solving for O, Initial residual = 0.173606, Final residual = 3.11608e-08, No Iterations 1
DILUPBiCGStab:  Solving for OH, Initial residual = 1.75037e-140, Final residual = 1.75037e-140, No Iterations 0
DILUPBiCGStab:  Solving for H2O, Initial residual = 2.02834e-146, Final residual = 2.02834e-146, No Iterations 0
DILUPBiCGStab:  Solving for HO2, Initial residual = 4.30211e-141, Final residual = 4.30211e-141, No Iterations 0
DILUPBiCGStab:  Solving for H2O2, Initial residual = 3.3792e-149, Final residual = 3.3792e-149, No Iterations 0
DILUPBiCGStab:  Solving for C, Initial residual = 0.500112, Final residual = 8.85382e-08, No Iterations 1
DILUPBiCGStab:  Solving for CH, Initial residual = 0.202794, Final residual = 3.61339e-08, No Iterations 1
DILUPBiCGStab:  Solving for CH2, Initial residual = 0.403892, Final residual = 7.15291e-08, No Iterations 1
DILUPBiCGStab:  Solving for CH2(S), Initial residual = 0.382147, Final residual = 6.76731e-08, No Iterations 1
DILUPBiCGStab:  Solving for CH3, Initial residual = 0.17699, Final residual = 3.14132e-08, No Iterations 1
DILUPBiCGStab:  Solving for CO, Initial residual = 9.37229e-145, Final residual = 9.37229e-145, No Iterations 0
DILUPBiCGStab:  Solving for CO2, Initial residual = 1.19348e-145, Final residual = 1.19348e-145, No Iterations 0
DILUPBiCGStab:  Solving for HCO, Initial residual = 7.72364e-145, Final residual = 7.72364e-145, No Iterations 0
DILUPBiCGStab:  Solving for CH2OH, Initial residual = 7.62083e-151, Final residual = 7.62083e-151, No Iterations 0
DILUPBiCGStab:  Solving for CH3OH, Initial residual = 8.50391e-150, Final residual = 8.50391e-150, No Iterations 0
DILUPBiCGStab:  Solving for C2H, Initial residual = 0.00320663, Final residual = 5.67953e-10, No Iterations 1
DILUPBiCGStab:  Solving for C2H2, Initial residual = 0.565437, Final residual = 1.00154e-07, No Iterations 1
DILUPBiCGStab:  Solving for C2H3, Initial residual = 0.517838, Final residual = 9.16831e-08, No Iterations 1
DILUPBiCGStab:  Solving for C2H4, Initial residual = 0.469601, Final residual = 8.31031e-08, No Iterations 1
DILUPBiCGStab:  Solving for C2H5, Initial residual = 0.448202, Final residual = 7.93157e-08, No Iterations 1
DILUPBiCGStab:  Solving for C2H6, Initial residual = 0.478349, Final residual = 8.46105e-08, No Iterations 1
DILUPBiCGStab:  Solving for HCCO, Initial residual = 2.06077e-158, Final residual = 2.06077e-158, No Iterations 0
DILUPBiCGStab:  Solving for CH2CO, Initial residual = 6.49048e-153, Final residual = 6.49048e-153, No Iterations 0
DILUPBiCGStab:  Solving for HCCOH, Initial residual = 3.11998e-160, Final residual = 3.11998e-160, No Iterations 0
DILUPBiCGStab:  Solving for N, Initial residual = 0.325276, Final residual = 5.78252e-08, No Iterations 1
DILUPBiCGStab:  Solving for NH, Initial residual = 0.393365, Final residual = 6.97593e-08, No Iterations 1
DILUPBiCGStab:  Solving for NH2, Initial residual = 1.1268e-07, Final residual = 1.1268e-07, No Iterations 0
DILUPBiCGStab:  Solving for NH3, Initial residual = 5.24e-15, Final residual = 5.24e-15, No Iterations 0
DILUPBiCGStab:  Solving for NNH, Initial residual = 0.146917, Final residual = 2.61071e-08, No Iterations 1
DILUPBiCGStab:  Solving for NO, Initial residual = 0.26202, Final residual = 4.70382e-08, No Iterations 1
DILUPBiCGStab:  Solving for NO2, Initial residual = 1.6309e-07, Final residual = 1.6309e-07, No Iterations 0
DILUPBiCGStab:  Solving for N2O, Initial residual = 0.174254, Final residual = 3.12712e-08, No Iterations 1
DILUPBiCGStab:  Solving for HNO, Initial residual = 9.79166e-154, Final residual = 9.79166e-154, No Iterations 0
DILUPBiCGStab:  Solving for CN, Initial residual = 0.429927, Final residual = 7.61373e-08, No Iterations 1
DILUPBiCGStab:  Solving for HCN, Initial residual = 0.325294, Final residual = 5.78283e-08, No Iterations 1
DILUPBiCGStab:  Solving for H2CN, Initial residual = 0.498236, Final residual = 8.8207e-08, No Iterations 1
DILUPBiCGStab:  Solving for HCNN, Initial residual = 0.239348, Final residual = 4.25665e-08, No Iterations 1
DILUPBiCGStab:  Solving for HCNO, Initial residual = 8.6972e-161, Final residual = 8.6972e-161, No Iterations 0
DILUPBiCGStab:  Solving for HOCN, Initial residual = 5.54679e-159, Final residual = 5.54679e-159, No Iterations 0
DILUPBiCGStab:  Solving for HNCO, Initial residual = 1.00271e-159, Final residual = 1.00271e-159, No Iterations 0
DILUPBiCGStab:  Solving for NCO, Initial residual = 1.43047e-154, Final residual = 1.43047e-154, No Iterations 0
DILUPBiCGStab:  Solving for AR, Initial residual = 0, Final residual = 0, No Iterations 0
DILUPBiCGStab:  Solving for C3H7, Initial residual = 0.399616, Final residual = 7.07628e-08, No Iterations 1
DILUPBiCGStab:  Solving for C3H8, Initial residual = 0.555363, Final residual = 9.82442e-08, No Iterations 1
DILUPBiCGStab:  Solving for CH2CHO, Initial residual = 1.79104e-153, Final residual = 1.79104e-153, No Iterations 0
DILUPBiCGStab:  Solving for CH3CHO, Initial residual = 8.35555e-155, Final residual = 8.35555e-155, No Iterations 0
DILUPBiCGStab:  Solving for h, Initial residual = 0.108426, Final residual = 1.08768e-09, No Iterations 1
min/max(T) = 293, 2000
DICPCG:  Solving for p, Initial residual = 0.101674, Final residual = 0.00131432, No Iterations 1
diagonal:  Solving for rho, Initial residual = 0, Final residual = 0, No Iterations 0
time step continuity errors : sum local = 7.34965e-07, global = -4.12078e-07, cumulative = -8.03995e-07
DICPCG:  Solving for p, Initial residual = 0.00111063, Final residual = 1.78427e-07, No Iterations 3
diagonal:  Solving for rho, Initial residual = 0, Final residual = 0, No Iterations 0
time step continuity errors : sum local = 1.16888e-10, global = -6.04876e-11, cumulative = -8.04055e-07
ExecutionTime = 3.99 s  ClockTime = 6 s

volFieldValue volFieldValue1 write:
    sum() of T = 1.99921e+06

Courant Number mean: 0.000107469 max: 0.00251682
deltaT = 3.58314e-07
Time = 1.5499e-06

diagonal:  Solving for rho, Initial residual = 0, Final residual = 0, No Iterations 0
[2] Receiver rank: 2 receives from "(0 2 )" own problems "(250 )"
[3] Receiver rank: 3 receives from "(0 1 3 )" own problems "(250 )"
[1] Sender rank: 1 sends to: "(3 1 )" counts: "(26 224 )" remaining problems:  224
[0] Sender rank: 0 sends to: "(2 3 0 )" counts: "(32 1 217 )" remaining problems:  217
DILUPBiCGStab:  Solving for CH4, Initial residual = 0.0706975, Final residual = 1.80198e-08, No Iterations 1
DILUPBiCGStab:  Solving for CH2O, Initial residual = 2.43915e-137, Final residual = 2.43915e-137, No Iterations 0
DILUPBiCGStab:  Solving for CH3O, Initial residual = 5.05562e-138, Final residual = 5.05562e-138, No Iterations 0
DILUPBiCGStab:  Solving for H, Initial residual = 0.126562, Final residual = 3.23469e-08, No Iterations 1
DILUPBiCGStab:  Solving for O2, Initial residual = 0.0710781, Final residual = 1.82848e-08, No Iterations 1
DILUPBiCGStab:  Solving for H2, Initial residual = 0.310329, Final residual = 7.88468e-08, No Iterations 1
DILUPBiCGStab:  Solving for O, Initial residual = 0.152686, Final residual = 3.93516e-08, No Iterations 1
DILUPBiCGStab:  Solving for OH, Initial residual = 1.21126e-135, Final residual = 1.21126e-135, No Iterations 0
DILUPBiCGStab:  Solving for H2O, Initial residual = 2.4212e-141, Final residual = 2.4212e-141, No Iterations 0
DILUPBiCGStab:  Solving for HO2, Initial residual = 2.10578e-136, Final residual = 2.10578e-136, No Iterations 0
DILUPBiCGStab:  Solving for H2O2, Initial residual = 3.19687e-144, Final residual = 3.19687e-144, No Iterations 0
DILUPBiCGStab:  Solving for C, Initial residual = 0.412848, Final residual = 1.04927e-07, No Iterations 1
DILUPBiCGStab:  Solving for CH, Initial residual = 0.15013, Final residual = 3.86196e-08, No Iterations 1
DILUPBiCGStab:  Solving for CH2, Initial residual = 0.369148, Final residual = 9.38527e-08, No Iterations 1
DILUPBiCGStab:  Solving for CH2(S), Initial residual = 0.341347, Final residual = 8.67718e-08, No Iterations 1
DILUPBiCGStab:  Solving for CH3, Initial residual = 0.15945, Final residual = 4.06685e-08, No Iterations 1
DILUPBiCGStab:  Solving for CO, Initial residual = 1.02093e-139, Final residual = 1.02093e-139, No Iterations 0
DILUPBiCGStab:  Solving for CO2, Initial residual = 1.19326e-140, Final residual = 1.19326e-140, No Iterations 0
DILUPBiCGStab:  Solving for HCO, Initial residual = 6.46256e-140, Final residual = 6.46256e-140, No Iterations 0
DILUPBiCGStab:  Solving for CH2OH, Initial residual = 1.21858e-145, Final residual = 1.21858e-145, No Iterations 0
DILUPBiCGStab:  Solving for CH3OH, Initial residual = 1.04741e-144, Final residual = 1.04741e-144, No Iterations 0
DILUPBiCGStab:  Solving for C2H, Initial residual = 0.0241387, Final residual = 6.13516e-09, No Iterations 1
DILUPBiCGStab:  Solving for C2H2, Initial residual = 0.491942, Final residual = 1.25129e-07, No Iterations 1
DILUPBiCGStab:  Solving for C2H3, Initial residual = 0.454141, Final residual = 1.15413e-07, No Iterations 1
DILUPBiCGStab:  Solving for C2H4, Initial residual = 0.412551, Final residual = 1.04835e-07, No Iterations 1
DILUPBiCGStab:  Solving for C2H5, Initial residual = 0.397782, Final residual = 1.01051e-07, No Iterations 1
DILUPBiCGStab:  Solving for C2H6, Initial residual = 0.431871, Final residual = 1.09686e-07, No Iterations 1
DILUPBiCGStab:  Solving for HCCO, Initial residual = 9.39266e-153, Final residual = 9.39266e-153, No Iterations 0
DILUPBiCGStab:  Solving for CH2CO, Initial residual = 1.35189e-147, Final residual = 1.35189e-147, No Iterations 0
DILUPBiCGStab:  Solving for HCCOH, Initial residual = 1.48918e-154, Final residual = 1.48918e-154, No Iterations 0
DILUPBiCGStab:  Solving for N, Initial residual = 0.262891, Final residual = 6.72969e-08, No Iterations 1
DILUPBiCGStab:  Solving for NH, Initial residual = 0.405394, Final residual = 1.03207e-07, No Iterations 1
DILUPBiCGStab:  Solving for NH2, Initial residual = 1.25903e-06, Final residual = 3.19969e-13, No Iterations 1
DILUPBiCGStab:  Solving for NH3, Initial residual = 2.04103e-13, Final residual = 2.04103e-13, No Iterations 0
DILUPBiCGStab:  Solving for NNH, Initial residual = 0.120868, Final residual = 3.09022e-08, No Iterations 1
DILUPBiCGStab:  Solving for NO, Initial residual = 0.234752, Final residual = 6.05177e-08, No Iterations 1
DILUPBiCGStab:  Solving for NO2, Initial residual = 4.98436e-07, Final residual = 4.98436e-07, No Iterations 0
DILUPBiCGStab:  Solving for N2O, Initial residual = 0.153439, Final residual = 3.95332e-08, No Iterations 1
DILUPBiCGStab:  Solving for HNO, Initial residual = 1.26394e-148, Final residual = 1.26394e-148, No Iterations 0
DILUPBiCGStab:  Solving for CN, Initial residual = 0.471172, Final residual = 1.19806e-07, No Iterations 1
DILUPBiCGStab:  Solving for HCN, Initial residual = 0.262948, Final residual = 6.73112e-08, No Iterations 1
DILUPBiCGStab:  Solving for H2CN, Initial residual = 0.450966, Final residual = 1.14588e-07, No Iterations 1
DILUPBiCGStab:  Solving for HCNN, Initial residual = 0.177769, Final residual = 4.55921e-08, No Iterations 1
DILUPBiCGStab:  Solving for HCNO, Initial residual = 1.84656e-155, Final residual = 1.84656e-155, No Iterations 0
DILUPBiCGStab:  Solving for HOCN, Initial residual = 1.32028e-153, Final residual = 1.32028e-153, No Iterations 0
DILUPBiCGStab:  Solving for HNCO, Initial residual = 2.32925e-154, Final residual = 2.32925e-154, No Iterations 0
DILUPBiCGStab:  Solving for NCO, Initial residual = 4.23487e-149, Final residual = 4.23487e-149, No Iterations 0
DILUPBiCGStab:  Solving for AR, Initial residual = 0, Final residual = 0, No Iterations 0
DILUPBiCGStab:  Solving for C3H7, Initial residual = 0.556565, Final residual = 1.41439e-07, No Iterations 1
DILUPBiCGStab:  Solving for C3H8, Initial residual = 0.629108, Final residual = 1.5977e-07, No Iterations 1
DILUPBiCGStab:  Solving for CH2CHO, Initial residual = 2.967e-148, Final residual = 2.967e-148, No Iterations 0
DILUPBiCGStab:  Solving for CH3CHO, Initial residual = 2.80169e-149, Final residual = 2.80169e-149, No Iterations 0
DILUPBiCGStab:  Solving for h, Initial residual = 0.102991, Final residual = 1.7172e-09, No Iterations 1
min/max(T) = 293, 2000
DICPCG:  Solving for p, Initial residual = 0.118735, Final residual = 0.00214982, No Iterations 1
diagonal:  Solving for rho, Initial residual = 0, Final residual = 0, No Iterations 0
time step continuity errors : sum local = 1.51123e-06, global = -9.82378e-07, cumulative = -1.78643e-06
DICPCG:  Solving for p, Initial residual = 0.00182094, Final residual = 6.51466e-07, No Iterations 3
diagonal:  Solving for rho, Initial residual = 0, Final residual = 0, No Iterations 0
time step continuity errors : sum local = 5.30864e-10, global = -3.41139e-10, cumulative = -1.78677e-06
ExecutionTime = 4.5 s  ClockTime = 7 s

volFieldValue volFieldValue1 write:
    sum() of T = 1.99894e+06

Courant Number mean: 0.00017184 max: 0.00345423
deltaT = 4.29976e-07
Time = 1.97988e-06

diagonal:  Solving for rho, Initial residual = 0, Final residual = 0, No Iterations 0
[1] Receiver rank: 1 receives from "(0 1 )" own problems "(250 )"
[2] Receiver rank: 2 receives from "(0 2 )" own problems "(250 )"
[3] Receiver rank: 3 receives from "(0 3 )" own problems "(250 )"
[0] Sender rank: 0 sends to: "(2 3 1 0 )" counts: "(35 48 19 148 )" remaining problems:  148
DILUPBiCGStab:  Solving for CH4, Initial residual = 0.0654526, Final residual = 2.45101e-08, No Iterations 1
DILUPBiCGStab:  Solving for CH2O, Initial residual = 1.16421e-132, Final residual = 1.16421e-132, No Iterations 0
DILUPBiCGStab:  Solving for CH3O, Initial residual = 1.98641e-133, Final residual = 1.98641e-133, No Iterations 0
DILUPBiCGStab:  Solving for H, Initial residual = 0.102263, Final residual = 3.8423e-08, No Iterations 1
DILUPBiCGStab:  Solving for O2, Initial residual = 0.0658973, Final residual = 2.44186e-08, No Iterations 1
DILUPBiCGStab:  Solving for H2, Initial residual = 0.272, Final residual = 1.01286e-07, No Iterations 1
DILUPBiCGStab:  Solving for O, Initial residual = 0.138166, Final residual = 5.13454e-08, No Iterations 1
DILUPBiCGStab:  Solving for OH, Initial residual = 5.59862e-131, Final residual = 5.59862e-131, No Iterations 0
DILUPBiCGStab:  Solving for H2O, Initial residual = 2.06918e-136, Final residual = 2.06918e-136, No Iterations 0
DILUPBiCGStab:  Solving for HO2, Initial residual = 7.28254e-132, Final residual = 7.28254e-132, No Iterations 0
DILUPBiCGStab:  Solving for H2O2, Initial residual = 2.31036e-139, Final residual = 2.31036e-139, No Iterations 0
DILUPBiCGStab:  Solving for C, Initial residual = 0.339809, Final residual = 1.26372e-07, No Iterations 1
DILUPBiCGStab:  Solving for CH, Initial residual = 0.109719, Final residual = 4.17683e-08, No Iterations 1
DILUPBiCGStab:  Solving for CH2, Initial residual = 0.337509, Final residual = 1.2564e-07, No Iterations 1
DILUPBiCGStab:  Solving for CH2(S), Initial residual = 0.308697, Final residual = 1.14842e-07, No Iterations 1
DILUPBiCGStab:  Solving for CH3, Initial residual = 0.14851, Final residual = 5.55536e-08, No Iterations 1
DILUPBiCGStab:  Solving for CO, Initial residual = 6.91336e-135, Final residual = 6.91336e-135, No Iterations 0
DILUPBiCGStab:  Solving for CO2, Initial residual = 7.63971e-136, Final residual = 7.63971e-136, No Iterations 0
DILUPBiCGStab:  Solving for HCO, Initial residual = 3.43713e-135, Final residual = 3.43713e-135, No Iterations 0
DILUPBiCGStab:  Solving for CH2OH, Initial residual = 1.39617e-140, Final residual = 1.39617e-140, No Iterations 0
DILUPBiCGStab:  Solving for CH3OH, Initial residual = 9.69939e-140, Final residual = 9.69939e-140, No Iterations 0
DILUPBiCGStab:  Solving for C2H, Initial residual = 0.123013, Final residual = 4.57029e-08, No Iterations 1
DILUPBiCGStab:  Solving for C2H2, Initial residual = 0.445493, Final residual = 1.65895e-07, No Iterations 1
DILUPBiCGStab:  Solving for C2H3, Initial residual = 0.415011, Final residual = 1.54259e-07, No Iterations 1
DILUPBiCGStab:  Solving for C2H4, Initial residual = 0.37797, Final residual = 1.40684e-07, No Iterations 1
DILUPBiCGStab:  Solving for C2H5, Initial residual = 0.364268, Final residual = 1.35461e-07, No Iterations 1
DILUPBiCGStab:  Solving for C2H6, Initial residual = 0.402127, Final residual = 1.49667e-07, No Iterations 1
DILUPBiCGStab:  Solving for HCCO, Initial residual = 2.63176e-147, Final residual = 2.63176e-147, No Iterations 0
DILUPBiCGStab:  Solving for CH2CO, Initial residual = 1.57512e-142, Final residual = 1.57512e-142, No Iterations 0
DILUPBiCGStab:  Solving for HCCOH, Initial residual = 4.53894e-149, Final residual = 4.53894e-149, No Iterations 0
DILUPBiCGStab:  Solving for N, Initial residual = 0.21509, Final residual = 8.10908e-08, No Iterations 1
DILUPBiCGStab:  Solving for NH, Initial residual = 0.39051, Final residual = 1.45507e-07, No Iterations 1
DILUPBiCGStab:  Solving for NH2, Initial residual = 1.14743e-05, Final residual = 4.26313e-12, No Iterations 1
DILUPBiCGStab:  Solving for NH3, Initial residual = 6.99904e-12, Final residual = 6.99904e-12, No Iterations 0
DILUPBiCGStab:  Solving for NNH, Initial residual = 0.0978375, Final residual = 3.67696e-08, No Iterations 1
DILUPBiCGStab:  Solving for NO, Initial residual = 0.214591, Final residual = 7.9775e-08, No Iterations 1
DILUPBiCGStab:  Solving for NO2, Initial residual = 1.36636e-06, Final residual = 5.04964e-13, No Iterations 1
DILUPBiCGStab:  Solving for N2O, Initial residual = 0.139043, Final residual = 5.16468e-08, No Iterations 1
DILUPBiCGStab:  Solving for HNO, Initial residual = 1.02376e-143, Final residual = 1.02376e-143, No Iterations 0
DILUPBiCGStab:  Solving for CN, Initial residual = 0.427216, Final residual = 1.59003e-07, No Iterations 1
DILUPBiCGStab:  Solving for HCN, Initial residual = 0.215225, Final residual = 8.11404e-08, No Iterations 1
DILUPBiCGStab:  Solving for H2CN, Initial residual = 0.396293, Final residual = 1.47297e-07, No Iterations 1
DILUPBiCGStab:  Solving for HCNN, Initial residual = 0.13086, Final residual = 4.96048e-08, No Iterations 1
DILUPBiCGStab:  Solving for HCNO, Initial residual = 2.43103e-150, Final residual = 2.43103e-150, No Iterations 0
DILUPBiCGStab:  Solving for HOCN, Initial residual = 2.02572e-148, Final residual = 2.02572e-148, No Iterations 0
DILUPBiCGStab:  Solving for HNCO, Initial residual = 3.47135e-149, Final residual = 3.47135e-149, No Iterations 0
DILUPBiCGStab:  Solving for NCO, Initial residual = 6.56273e-144, Final residual = 6.56273e-144, No Iterations 0
DILUPBiCGStab:  Solving for AR, Initial residual = 0, Final residual = 0, No Iterations 0
DILUPBiCGStab:  Solving for C3H7, Initial residual = 0.556851, Final residual = 2.06884e-07, No Iterations 1
DILUPBiCGStab:  Solving for C3H8, Initial residual = 0.607878, Final residual = 2.2611e-07, No Iterations 1
DILUPBiCGStab:  Solving for CH2CHO, Initial residual = 2.77577e-143, Final residual = 2.77577e-143, No Iterations 0
DILUPBiCGStab:  Solving for CH3CHO, Initial residual = 6.35543e-144, Final residual = 6.35543e-144, No Iterations 0
DILUPBiCGStab:  Solving for h, Initial residual = 0.0995079, Final residual = 2.53954e-09, No Iterations 1
min/max(T) = 293, 2000
DICPCG:  Solving for p, Initial residual = 0.114797, Final residual = 0.00303541, No Iterations 1
diagonal:  Solving for rho, Initial residual = 0, Final residual = 0, No Iterations 0
time step continuity errors : sum local = 2.65583e-06, global = -1.86308e-06, cumulative = -3.64986e-06
DICPCG:  Solving for p, Initial residual = 0.0026629, Final residual = 6.26813e-07, No Iterations 4
diagonal:  Solving for rho, Initial residual = 0, Final residual = 0, No Iterations 0
time step continuity errors : sum local = 6.25369e-10, global = -4.46784e-10, cumulative = -3.65031e-06
ExecutionTime = 5.07 s  ClockTime = 7 s

volFieldValue volFieldValue1 write:
    sum() of T = 1.99861e+06

Courant Number mean: 0.000265003 max: 0.00454526
deltaT = 5.1597e-07
Time = 2.49585e-06

diagonal:  Solving for rho, Initial residual = 0, Final residual = 0, No Iterations 0
[3] Receiver rank: 3 receives from "(0 3 )" own problems "(250 )"
[0] Sender rank: 0 sends to: "(3 0 )" counts: "(51 199 )" remaining problems:  199
DILUPBiCGStab:  Solving for CH4, Initial residual = 0.0616285, Final residual = 3.49993e-08, No Iterations 1
DILUPBiCGStab:  Solving for CH2O, Initial residual = 4.15587e-128, Final residual = 4.15587e-128, No Iterations 0
DILUPBiCGStab:  Solving for CH3O, Initial residual = 5.8363e-129, Final residual = 5.8363e-129, No Iterations 0
DILUPBiCGStab:  Solving for H, Initial residual = 0.0786269, Final residual = 4.48785e-08, No Iterations 1
DILUPBiCGStab:  Solving for O2, Initial residual = 0.062114, Final residual = 3.3213e-08, No Iterations 1
DILUPBiCGStab:  Solving for H2, Initial residual = 0.239374, Final residual = 1.34666e-07, No Iterations 1
DILUPBiCGStab:  Solving for O, Initial residual = 0.127395, Final residual = 6.84013e-08, No Iterations 1
DILUPBiCGStab:  Solving for OH, Initial residual = 1.94238e-126, Final residual = 1.94238e-126, No Iterations 0
DILUPBiCGStab:  Solving for H2O, Initial residual = 1.48939e-131, Final residual = 1.48939e-131, No Iterations 0
DILUPBiCGStab:  Solving for HO2, Initial residual = 1.96258e-127, Final residual = 1.96258e-127, No Iterations 0
DILUPBiCGStab:  Solving for H2O2, Initial residual = 1.46654e-134, Final residual = 1.46654e-134, No Iterations 0
DILUPBiCGStab:  Solving for C, Initial residual = 0.278787, Final residual = 1.56125e-07, No Iterations 1
DILUPBiCGStab:  Solving for CH, Initial residual = 0.0824754, Final residual = 4.82595e-08, No Iterations 1
DILUPBiCGStab:  Solving for CH2, Initial residual = 0.306425, Final residual = 1.72041e-07, No Iterations 1
DILUPBiCGStab:  Solving for CH2(S), Initial residual = 0.278677, Final residual = 1.56239e-07, No Iterations 1
DILUPBiCGStab:  Solving for CH3, Initial residual = 0.140605, Final residual = 7.95084e-08, No Iterations 1
DILUPBiCGStab:  Solving for CO, Initial residual = 3.35282e-130, Final residual = 3.35282e-130, No Iterations 0
DILUPBiCGStab:  Solving for CO2, Initial residual = 3.5868e-131, Final residual = 3.5868e-131, No Iterations 0
DILUPBiCGStab:  Solving for HCO, Initial residual = 1.32332e-130, Final residual = 1.32332e-130, No Iterations 0
DILUPBiCGStab:  Solving for CH2OH, Initial residual = 1.32209e-135, Final residual = 1.32209e-135, No Iterations 0
DILUPBiCGStab:  Solving for CH3OH, Initial residual = 7.84215e-135, Final residual = 7.84215e-135, No Iterations 0
DILUPBiCGStab:  Solving for C2H, Initial residual = 0.331422, Final residual = 1.8519e-07, No Iterations 1
DILUPBiCGStab:  Solving for C2H2, Initial residual = 0.416289, Final residual = 2.33662e-07, No Iterations 1
DILUPBiCGStab:  Solving for C2H3, Initial residual = 0.395901, Final residual = 2.21479e-07, No Iterations 1
DILUPBiCGStab:  Solving for C2H4, Initial residual = 0.360222, Final residual = 2.02307e-07, No Iterations 1
DILUPBiCGStab:  Solving for C2H5, Initial residual = 0.340106, Final residual = 1.90674e-07, No Iterations 1
DILUPBiCGStab:  Solving for C2H6, Initial residual = 0.38203, Final residual = 2.14787e-07, No Iterations 1
DILUPBiCGStab:  Solving for HCCO, Initial residual = 5.64849e-142, Final residual = 5.64849e-142, No Iterations 0
DILUPBiCGStab:  Solving for CH2CO, Initial residual = 1.2314e-137, Final residual = 1.2314e-137, No Iterations 0
DILUPBiCGStab:  Solving for HCCOH, Initial residual = 1.07145e-143, Final residual = 1.07145e-143, No Iterations 0
DILUPBiCGStab:  Solving for N, Initial residual = 0.178045, Final residual = 1.02323e-07, No Iterations 1
DILUPBiCGStab:  Solving for NH, Initial residual = 0.365519, Final residual = 2.05243e-07, No Iterations 1
DILUPBiCGStab:  Solving for NH2, Initial residual = 8.67185e-05, Final residual = 4.84829e-11, No Iterations 1
DILUPBiCGStab:  Solving for NH3, Initial residual = 1.54851e-10, Final residual = 1.54851e-10, No Iterations 0
DILUPBiCGStab:  Solving for NNH, Initial residual = 0.0749686, Final residual = 4.27967e-08, No Iterations 1
DILUPBiCGStab:  Solving for NO, Initial residual = 0.199379, Final residual = 1.07101e-07, No Iterations 1
DILUPBiCGStab:  Solving for NO2, Initial residual = 3.44866e-06, Final residual = 1.8391e-12, No Iterations 1
DILUPBiCGStab:  Solving for N2O, Initial residual = 0.128423, Final residual = 6.89067e-08, No Iterations 1
DILUPBiCGStab:  Solving for HNO, Initial residual = 6.01052e-139, Final residual = 6.01052e-139, No Iterations 0
DILUPBiCGStab:  Solving for CN, Initial residual = 0.37051, Final residual = 2.07818e-07, No Iterations 1
DILUPBiCGStab:  Solving for HCN, Initial residual = 0.178333, Final residual = 1.02483e-07, No Iterations 1
DILUPBiCGStab:  Solving for H2CN, Initial residual = 0.348148, Final residual = 1.94813e-07, No Iterations 1
DILUPBiCGStab:  Solving for HCNN, Initial residual = 0.0992204, Final residual = 5.77177e-08, No Iterations 1
DILUPBiCGStab:  Solving for HCNO, Initial residual = 2.53206e-145, Final residual = 2.53206e-145, No Iterations 0
DILUPBiCGStab:  Solving for HOCN, Initial residual = 2.36868e-143, Final residual = 2.36868e-143, No Iterations 0
DILUPBiCGStab:  Solving for HNCO, Initial residual = 3.99285e-144, Final residual = 3.99285e-144, No Iterations 0
DILUPBiCGStab:  Solving for NCO, Initial residual = 6.56607e-139, Final residual = 6.56607e-139, No Iterations 0
DILUPBiCGStab:  Solving for AR, Initial residual = 0, Final residual = 0, No Iterations 0
DILUPBiCGStab:  Solving for C3H7, Initial residual = 0.527784, Final residual = 2.94938e-07, No Iterations 1
DILUPBiCGStab:  Solving for C3H8, Initial residual = 0.58092, Final residual = 3.26123e-07, No Iterations 1
DILUPBiCGStab:  Solving for CH2CHO, Initial residual = 1.76519e-138, Final residual = 1.76519e-138, No Iterations 0
DILUPBiCGStab:  Solving for CH3CHO, Initial residual = 1.15242e-138, Final residual = 1.15242e-138, No Iterations 0
DILUPBiCGStab:  Solving for h, Initial residual = 0.0967855, Final residual = 3.60129e-09, No Iterations 1
min/max(T) = 293, 2000
DICPCG:  Solving for p, Initial residual = 0.112397, Final residual = 0.00447525, No Iterations 1
diagonal:  Solving for rho, Initial residual = 0, Final residual = 0, No Iterations 0
time step continuity errors : sum local = 4.84753e-06, global = -3.41429e-06, cumulative = -7.06459e-06
DICPCG:  Solving for p, Initial residual = 0.00397671, Final residual = 3.26754e-07, No Iterations 5
diagonal:  Solving for rho, Initial residual = 0, Final residual = 0, No Iterations 0
time step continuity errors : sum local = 4.00904e-10, global = -1.06998e-10, cumulative = -7.0647e-06
ExecutionTime = 5.86 s  ClockTime = 9 s

volFieldValue volFieldValue1 write:
    sum() of T = 1.9982e+06

Courant Number mean: 0.000397932 max: 0.00583866
deltaT = 6.19164e-07
Time = 3.11501e-06

diagonal:  Solving for rho, Initial residual = 0, Final residual = 0, No Iterations 0
[3] Receiver rank: 3 receives from "(1 3 )" own problems "(250 )"
[1] Rank: 1 does not take part in balancing.Sender rank: 1 sends to: "(3 2 0 1 )" counts: "(40 25 13 172 )" remaining problems:  172
[2] Rank: 2 does not take part in balancing.Receiver rank: 2 receives from "(1 2 )" own problems "(250 )"
[0] Receiver rank: 0 receives from "(1 0 )" own problems "(250 )"
DILUPBiCGStab:  Solving for CH4, Initial residual = 0.0587424, Final residual = 5.08638e-08, No Iterations 1
DILUPBiCGStab:  Solving for CH2O, Initial residual = 1.19448e-123, Final residual = 1.19448e-123, No Iterations 0
DILUPBiCGStab:  Solving for CH3O, Initial residual = 1.38004e-124, Final residual = 1.38004e-124, No Iterations 0
DILUPBiCGStab:  Solving for H, Initial residual = 0.0540463, Final residual = 4.67354e-08, No Iterations 1
DILUPBiCGStab:  Solving for O2, Initial residual = 0.0592646, Final residual = 4.57906e-08, No Iterations 1
DILUPBiCGStab:  Solving for H2, Initial residual = 0.209217, Final residual = 1.77078e-07, No Iterations 1
DILUPBiCGStab:  Solving for O, Initial residual = 0.118938, Final residual = 9.24156e-08, No Iterations 1
DILUPBiCGStab:  Solving for OH, Initial residual = 1.437e-10, Final residual = 1.437e-10, No Iterations 0
DILUPBiCGStab:  Solving for H2O, Initial residual = 9.9081e-127, Final residual = 9.9081e-127, No Iterations 0
DILUPBiCGStab:  Solving for HO2, Initial residual = 1.98101e-12, Final residual = 1.98101e-12, No Iterations 0
DILUPBiCGStab:  Solving for H2O2, Initial residual = 8.84191e-130, Final residual = 8.84191e-130, No Iterations 0
DILUPBiCGStab:  Solving for C, Initial residual = 0.228953, Final residual = 1.90217e-07, No Iterations 1
DILUPBiCGStab:  Solving for CH, Initial residual = 0.0681289, Final residual = 6.01864e-08, No Iterations 1
DILUPBiCGStab:  Solving for CH2, Initial residual = 0.273575, Final residual = 2.29566e-07, No Iterations 1
DILUPBiCGStab:  Solving for CH2(S), Initial residual = 0.247581, Final residual = 2.06812e-07, No Iterations 1
DILUPBiCGStab:  Solving for CH3, Initial residual = 0.133106, Final residual = 1.13219e-07, No Iterations 1
DILUPBiCGStab:  Solving for CO, Initial residual = 1.26964e-125, Final residual = 1.26964e-125, No Iterations 0
DILUPBiCGStab:  Solving for CO2, Initial residual = 1.34399e-126, Final residual = 1.34399e-126, No Iterations 0
DILUPBiCGStab:  Solving for HCO, Initial residual = 4.00161e-126, Final residual = 4.00161e-126, No Iterations 0
DILUPBiCGStab:  Solving for CH2OH, Initial residual = 1.11092e-130, Final residual = 1.11092e-130, No Iterations 0
DILUPBiCGStab:  Solving for CH3OH, Initial residual = 6.00645e-130, Final residual = 6.00645e-130, No Iterations 0
DILUPBiCGStab:  Solving for C2H, Initial residual = 0.457373, Final residual = 3.78099e-07, No Iterations 1
DILUPBiCGStab:  Solving for C2H2, Initial residual = 0.399072, Final residual = 3.33466e-07, No Iterations 1
DILUPBiCGStab:  Solving for C2H3, Initial residual = 0.386968, Final residual = 3.21109e-07, No Iterations 1
DILUPBiCGStab:  Solving for C2H4, Initial residual = 0.352225, Final residual = 2.96131e-07, No Iterations 1
DILUPBiCGStab:  Solving for C2H5, Initial residual = 0.319367, Final residual = 2.67326e-07, No Iterations 1
DILUPBiCGStab:  Solving for C2H6, Initial residual = 0.366279, Final residual = 3.09929e-07, No Iterations 1
DILUPBiCGStab:  Solving for HCCO, Initial residual = 1.05157e-136, Final residual = 1.05157e-136, No Iterations 0
DILUPBiCGStab:  Solving for CH2CO, Initial residual = 7.37402e-133, Final residual = 7.37402e-133, No Iterations 0
DILUPBiCGStab:  Solving for HCCOH, Initial residual = 2.17267e-138, Final residual = 2.17267e-138, No Iterations 0
DILUPBiCGStab:  Solving for N, Initial residual = 0.15151, Final residual = 1.32954e-07, No Iterations 1
DILUPBiCGStab:  Solving for NH, Initial residual = 0.335663, Final residual = 2.80524e-07, No Iterations 1
DILUPBiCGStab:  Solving for NH2, Initial residual = 0.000542692, Final residual = 4.49757e-10, No Iterations 1
DILUPBiCGStab:  Solving for NH3, Initial residual = 2.55802e-09, Final residual = 2.55802e-09, No Iterations 0
DILUPBiCGStab:  Solving for NNH, Initial residual = 0.0508607, Final residual = 4.38789e-08, No Iterations 1
DILUPBiCGStab:  Solving for NO, Initial residual = 0.187621, Final residual = 1.4586e-07, No Iterations 1
DILUPBiCGStab:  Solving for NO2, Initial residual = 8.1982e-06, Final residual = 6.31583e-12, No Iterations 1
DILUPBiCGStab:  Solving for N2O, Initial residual = 0.120148, Final residual = 9.32704e-08, No Iterations 1
DILUPBiCGStab:  Solving for HNO, Initial residual = 3.06122e-22, Final residual = 3.06122e-22, No Iterations 0
DILUPBiCGStab:  Solving for CN, Initial residual = 0.317975, Final residual = 2.65367e-07, No Iterations 1
DILUPBiCGStab:  Solving for HCN, Initial residual = 0.152089, Final residual = 1.33429e-07, No Iterations 1
DILUPBiCGStab:  Solving for H2CN, Initial residual = 0.308465, Final residual = 2.562e-07, No Iterations 1
DILUPBiCGStab:  Solving for HCNN, Initial residual = 0.082943, Final residual = 7.37478e-08, No Iterations 1
DILUPBiCGStab:  Solving for HCNO, Initial residual = 2.54722e-140, Final residual = 2.54722e-140, No Iterations 0
DILUPBiCGStab:  Solving for HOCN, Initial residual = 2.34212e-138, Final residual = 2.34212e-138, No Iterations 0
DILUPBiCGStab:  Solving for HNCO, Initial residual = 3.99772e-139, Final residual = 3.99772e-139, No Iterations 0
DILUPBiCGStab:  Solving for NCO, Initial residual = 4.74077e-134, Final residual = 4.74077e-134, No Iterations 0
DILUPBiCGStab:  Solving for AR, Initial residual = 0, Final residual = 0, No Iterations 0
DILUPBiCGStab:  Solving for C3H7, Initial residual = 0.496559, Final residual = 4.10502e-07, No Iterations 1
DILUPBiCGStab:  Solving for C3H8, Initial residual = 0.557296, Final residual = 4.69041e-07, No Iterations 1
DILUPBiCGStab:  Solving for CH2CHO, Initial residual = 8.81971e-134, Final residual = 8.81971e-134, No Iterations 0
DILUPBiCGStab:  Solving for CH3CHO, Initial residual = 1.80534e-133, Final residual = 1.80534e-133, No Iterations 0
DILUPBiCGStab:  Solving for h, Initial residual = 0.0951503, Final residual = 5.12982e-09, No Iterations 1
min/max(T) = 293, 2000
DICPCG:  Solving for p, Initial residual = 0.107028, Final residual = 0.00672932, No Iterations 1
diagonal:  Solving for rho, Initial residual = 0, Final residual = 0, No Iterations 0
time step continuity errors : sum local = 9.07124e-06, global = -6.60009e-06, cumulative = -1.36648e-05
DICPCG:  Solving for p, Initial residual = 0.00609883, Final residual = 5.01299e-07, No Iterations 6
diagonal:  Solving for rho, Initial residual = 0, Final residual = 0, No Iterations 0
time step continuity errors : sum local = 7.52041e-10, global = -3.34609e-12, cumulative = -1.36648e-05
ExecutionTime = 6.41 s  ClockTime = 10 s

volFieldValue volFieldValue1 write:
    sum() of T = 1.99768e+06

Courant Number mean: 0.000586793 max: 0.00736729
deltaT = 7.42995e-07
Time = 3.85801e-06

diagonal:  Solving for rho, Initial residual = 0, Final residual = 0, No Iterations 0
[2] Sender rank: 2 sends to: "(3 0 2 )" counts: "(39 13 198 )" remaining problems:  198
[3] Receiver rank: 3 receives from "(2 3 )" own problems "(250 )"
[1] Sender rank: 1 sends to: "(0 1 )" counts: "(8 242 )" remaining problems:  242
[0] Receiver rank: 0 receives from "(2 1 0 )" own problems "(250 )"
DILUPBiCGStab:  Solving for CH4, Initial residual = 0.0564918, Final residual = 7.58298e-08, No Iterations 1
DILUPBiCGStab:  Solving for CH2O, Initial residual = 2.90502e-119, Final residual = 2.90502e-119, No Iterations 0
DILUPBiCGStab:  Solving for CH3O, Initial residual = 2.76076e-120, Final residual = 2.76076e-120, No Iterations 0
DILUPBiCGStab:  Solving for H, Initial residual = 0.0286814, Final residual = 3.79577e-08, No Iterations 1
DILUPBiCGStab:  Solving for O2, Initial residual = 0.0570629, Final residual = 6.68946e-08, No Iterations 1
DILUPBiCGStab:  Solving for H2, Initial residual = 0.180001, Final residual = 2.31012e-07, No Iterations 1
DILUPBiCGStab:  Solving for O, Initial residual = 0.111952, Final residual = 1.31842e-07, No Iterations 1
DILUPBiCGStab:  Solving for OH, Initial residual = 6.57286e-10, Final residual = 6.57286e-10, No Iterations 0
DILUPBiCGStab:  Solving for H2O, Initial residual = 1.86603e-36, Final residual = 1.86603e-36, No Iterations 0
DILUPBiCGStab:  Solving for HO2, Initial residual = 5.69899e-12, Final residual = 5.69899e-12, No Iterations 0
DILUPBiCGStab:  Solving for H2O2, Initial residual = 2.00876e-39, Final residual = 2.00876e-39, No Iterations 0
DILUPBiCGStab:  Solving for C, Initial residual = 0.187457, Final residual = 2.31462e-07, No Iterations 1
DILUPBiCGStab:  Solving for CH, Initial residual = 0.0627337, Final residual = 8.6055e-08, No Iterations 1
DILUPBiCGStab:  Solving for CH2, Initial residual = 0.237145, Final residual = 2.98686e-07, No Iterations 1
DILUPBiCGStab:  Solving for CH2(S), Initial residual = 0.213248, Final residual = 2.66225e-07, No Iterations 1
DILUPBiCGStab:  Solving for CH3, Initial residual = 0.124187, Final residual = 1.60123e-07, No Iterations 1
DILUPBiCGStab:  Solving for CO, Initial residual = 3.97662e-121, Final residual = 3.97662e-121, No Iterations 0
DILUPBiCGStab:  Solving for CO2, Initial residual = 4.26166e-122, Final residual = 4.26166e-122, No Iterations 0
DILUPBiCGStab:  Solving for HCO, Initial residual = 1.00411e-121, Final residual = 1.00411e-121, No Iterations 0
DILUPBiCGStab:  Solving for CH2OH, Initial residual = 8.55057e-126, Final residual = 8.55057e-126, No Iterations 0
DILUPBiCGStab:  Solving for CH3OH, Initial residual = 4.56378e-125, Final residual = 4.56378e-125, No Iterations 0
DILUPBiCGStab:  Solving for C2H, Initial residual = 0.472945, Final residual = 5.78949e-07, No Iterations 1
DILUPBiCGStab:  Solving for C2H2, Initial residual = 0.387552, Final residual = 4.83423e-07, No Iterations 1
DILUPBiCGStab:  Solving for C2H3, Initial residual = 0.372926, Final residual = 4.60107e-07, No Iterations 1
DILUPBiCGStab:  Solving for C2H4, Initial residual = 0.345144, Final residual = 4.36833e-07, No Iterations 1
DILUPBiCGStab:  Solving for C2H5, Initial residual = 0.297246, Final residual = 3.73118e-07, No Iterations 1
DILUPBiCGStab:  Solving for C2H6, Initial residual = 0.350584, Final residual = 4.50329e-07, No Iterations 1
DILUPBiCGStab:  Solving for HCCO, Initial residual = 1.81547e-131, Final residual = 1.81547e-131, No Iterations 0
DILUPBiCGStab:  Solving for CH2CO, Initial residual = 3.89555e-128, Final residual = 3.89555e-128, No Iterations 0
DILUPBiCGStab:  Solving for HCCOH, Initial residual = 4.03463e-133, Final residual = 4.03463e-133, No Iterations 0
DILUPBiCGStab:  Solving for N, Initial residual = 0.133358, Final residual = 1.81769e-07, No Iterations 1
DILUPBiCGStab:  Solving for NH, Initial residual = 0.301842, Final residual = 3.76757e-07, No Iterations 1
DILUPBiCGStab:  Solving for NH2, Initial residual = 0.00281301, Final residual = 3.46386e-09, No Iterations 1
DILUPBiCGStab:  Solving for NH3, Initial residual = 3.25517e-08, Final residual = 3.25517e-08, No Iterations 0
DILUPBiCGStab:  Solving for NNH, Initial residual = 0.026718, Final residual = 3.63274e-08, No Iterations 1
DILUPBiCGStab:  Solving for NO, Initial residual = 0.17836, Final residual = 2.10061e-07, No Iterations 1
DILUPBiCGStab:  Solving for NO2, Initial residual = 1.85636e-05, Final residual = 2.162e-11, No Iterations 1
DILUPBiCGStab:  Solving for N2O, Initial residual = 0.113374, Final residual = 1.33418e-07, No Iterations 1
DILUPBiCGStab:  Solving for HNO, Initial residual = 3.49855e-21, Final residual = 3.49855e-21, No Iterations 0
DILUPBiCGStab:  Solving for CN, Initial residual = 0.272258, Final residual = 3.39273e-07, No Iterations 1
DILUPBiCGStab:  Solving for HCN, Initial residual = 0.134462, Final residual = 1.8314e-07, No Iterations 1
DILUPBiCGStab:  Solving for H2CN, Initial residual = 0.274887, Final residual = 3.39666e-07, No Iterations 1
DILUPBiCGStab:  Solving for HCNN, Initial residual = 0.0762846, Final residual = 1.03436e-07, No Iterations 1
DILUPBiCGStab:  Solving for HCNO, Initial residual = 2.77382e-135, Final residual = 2.77382e-135, No Iterations 0
DILUPBiCGStab:  Solving for HOCN, Initial residual = 2.14115e-133, Final residual = 2.14115e-133, No Iterations 0
DILUPBiCGStab:  Solving for HNCO, Initial residual = 3.83794e-134, Final residual = 3.83794e-134, No Iterations 0
DILUPBiCGStab:  Solving for NCO, Initial residual = 2.65918e-129, Final residual = 2.65918e-129, No Iterations 0
DILUPBiCGStab:  Solving for AR, Initial residual = 0, Final residual = 0, No Iterations 0
DILUPBiCGStab:  Solving for C3H7, Initial residual = 0.460378, Final residual = 5.63622e-07, No Iterations 1
DILUPBiCGStab:  Solving for C3H8, Initial residual = 0.532853, Final residual = 6.76575e-07, No Iterations 1
DILUPBiCGStab:  Solving for CH2CHO, Initial residual = 4.11985e-129, Final residual = 4.11985e-129, No Iterations 0
DILUPBiCGStab:  Solving for CH3CHO, Initial residual = 2.49689e-128, Final residual = 2.49689e-128, No Iterations 0
DILUPBiCGStab:  Solving for h, Initial residual = 0.0938938, Final residual = 7.7062e-09, No Iterations 1
min/max(T) = 293, 2000
DICPCG:  Solving for p, Initial residual = 0.0999367, Final residual = 0.00435241, No Iterations 2
diagonal:  Solving for rho, Initial residual = 0, Final residual = 0, No Iterations 0
time step continuity errors : sum local = 7.28687e-06, global = -1.61997e-06, cumulative = -1.52848e-05
DICPCG:  Solving for p, Initial residual = 0.00401232, Final residual = 1.86439e-07, No Iterations 7
diagonal:  Solving for rho, Initial residual = 0, Final residual = 0, No Iterations 0
time step continuity errors : sum local = 3.42802e-10, global = 7.39055e-11, cumulative = -1.52847e-05
ExecutionTime = 7.13 s  ClockTime = 11 s

volFieldValue volFieldValue1 write:
    sum() of T = 1.99705e+06

Courant Number mean: 0.000854714 max: 0.00914138
deltaT = 8.91594e-07
Time = 4.7496e-06

diagonal:  Solving for rho, Initial residual = 0, Final residual = 0, No Iterations 0
[1] Receiver rank: 1 receives from "(2 3 1 )" own problems "(250 )"
[2] Sender rank: 2 sends to: "(1 2 )" counts: "(34 216 )" remaining problems:  216
[3] Sender rank: 3 sends to: "(1 0 3 )" counts: "(2 0 248 )" remaining problems:  248
[0] Receiver rank: 0 receives from "(3 0 )" own problems "(250 )"
DILUPBiCGStab:  Solving for CH4, Initial residual = 0.0546926, Final residual = 1.12972e-07, No Iterations 1
DILUPBiCGStab:  Solving for CH2O, Initial residual = 6.21256e-115, Final residual = 6.21256e-115, No Iterations 0
DILUPBiCGStab:  Solving for CH3O, Initial residual = 4.85758e-116, Final residual = 4.85758e-116, No Iterations 0
DILUPBiCGStab:  Solving for H, Initial residual = 0.0087085, Final residual = 4.19089e-08, No Iterations 1
DILUPBiCGStab:  Solving for O2, Initial residual = 0.0553261, Final residual = 9.53582e-08, No Iterations 1
DILUPBiCGStab:  Solving for H2, Initial residual = 0.151557, Final residual = 2.92874e-07, No Iterations 1
DILUPBiCGStab:  Solving for O, Initial residual = 0.105912, Final residual = 1.83517e-07, No Iterations 1
DILUPBiCGStab:  Solving for OH, Initial residual = 1.73662e-09, Final residual = 1.73662e-09, No Iterations 0
DILUPBiCGStab:  Solving for H2O, Initial residual = 3.00214e-35, Final residual = 3.00214e-35, No Iterations 0
DILUPBiCGStab:  Solving for HO2, Initial residual = 1.84268e-11, Final residual = 1.84268e-11, No Iterations 0
DILUPBiCGStab:  Solving for H2O2, Initial residual = 4.41527e-38, Final residual = 4.41527e-38, No Iterations 0
DILUPBiCGStab:  Solving for C, Initial residual = 0.150009, Final residual = 2.76743e-07, No Iterations 1
DILUPBiCGStab:  Solving for CH, Initial residual = 0.0569827, Final residual = 1.09098e-07, No Iterations 1
DILUPBiCGStab:  Solving for CH2, Initial residual = 0.196825, Final residual = 3.70365e-07, No Iterations 1
[...]
DILUPBiCGStab:  Solving for CH, Initial residual = 0.00209749, Final residual = 6.58168e-07, No Iterations 3
DILUPBiCGStab:  Solving for CH2, Initial residual = 0.00123711, Final residual = 6.73585e-07, No Iterations 3
DILUPBiCGStab:  Solving for CH2(S), Initial residual = 0.00137162, Final residual = 6.26861e-07, No Iterations 3
DILUPBiCGStab:  Solving for CH3, Initial residual = 0.000713543, Final residual = 4.53662e-07, No Iterations 3
DILUPBiCGStab:  Solving for CO, Initial residual = 0.000964591, Final residual = 4.38961e-07, No Iterations 3
DILUPBiCGStab:  Solving for CO2, Initial residual = 0.000740532, Final residual = 3.09667e-07, No Iterations 3
DILUPBiCGStab:  Solving for HCO, Initial residual = 0.000892024, Final residual = 2.71664e-07, No Iterations 3
DILUPBiCGStab:  Solving for CH2OH, Initial residual = 0.00121851, Final residual = 5.5993e-07, No Iterations 3
DILUPBiCGStab:  Solving for CH3OH, Initial residual = 0.000728112, Final residual = 2.63807e-07, No Iterations 3
DILUPBiCGStab:  Solving for C2H, Initial residual = 0.00180199, Final residual = 3.61651e-07, No Iterations 3
DILUPBiCGStab:  Solving for C2H2, Initial residual = 0.000716067, Final residual = 3.20472e-07, No Iterations 3
DILUPBiCGStab:  Solving for C2H3, Initial residual = 0.00104782, Final residual = 9.59055e-07, No Iterations 3
DILUPBiCGStab:  Solving for C2H4, Initial residual = 0.000398945, Final residual = 8.36358e-07, No Iterations 2
DILUPBiCGStab:  Solving for C2H5, Initial residual = 0.000878299, Final residual = 7.47782e-07, No Iterations 3
DILUPBiCGStab:  Solving for C2H6, Initial residual = 0.000360295, Final residual = 2.27665e-07, No Iterations 3
DILUPBiCGStab:  Solving for HCCO, Initial residual = 0.00107862, Final residual = 3.95436e-07, No Iterations 3
DILUPBiCGStab:  Solving for CH2CO, Initial residual = 0.000467575, Final residual = 8.21672e-07, No Iterations 2
DILUPBiCGStab:  Solving for HCCOH, Initial residual = 0.00107636, Final residual = 7.62629e-07, No Iterations 3
DILUPBiCGStab:  Solving for N, Initial residual = 0.00273031, Final residual = 5.86279e-07, No Iterations 4
DILUPBiCGStab:  Solving for NH, Initial residual = 0.0020991, Final residual = 7.79615e-07, No Iterations 3
DILUPBiCGStab:  Solving for NH2, Initial residual = 0.00191255, Final residual = 6.59231e-07, No Iterations 3
DILUPBiCGStab:  Solving for NH3, Initial residual = 0.000893334, Final residual = 3.55691e-07, No Iterations 3
DILUPBiCGStab:  Solving for NNH, Initial residual = 0.00175837, Final residual = 3.46708e-07, No Iterations 3
DILUPBiCGStab:  Solving for NO, Initial residual = 0.000832168, Final residual = 6.61319e-07, No Iterations 3
DILUPBiCGStab:  Solving for NO2, Initial residual = 0.00149215, Final residual = 1.00912e-07, No Iterations 3
DILUPBiCGStab:  Solving for N2O, Initial residual = 0.000969545, Final residual = 5.84743e-07, No Iterations 2
DILUPBiCGStab:  Solving for HNO, Initial residual = 0.0012456, Final residual = 3.31615e-07, No Iterations 3
DILUPBiCGStab:  Solving for CN, Initial residual = 0.00421269, Final residual = 9.91188e-07, No Iterations 4
DILUPBiCGStab:  Solving for HCN, Initial residual = 0.00123227, Final residual = 6.43885e-07, No Iterations 3
DILUPBiCGStab:  Solving for H2CN, Initial residual = 0.00224292, Final residual = 7.58797e-07, No Iterations 3
DILUPBiCGStab:  Solving for HCNN, Initial residual = 0.00170742, Final residual = 5.05135e-07, No Iterations 3
DILUPBiCGStab:  Solving for HCNO, Initial residual = 0.000672177, Final residual = 3.8432e-07, No Iterations 3
DILUPBiCGStab:  Solving for HOCN, Initial residual = 0.00221886, Final residual = 3.42519e-07, No Iterations 3
DILUPBiCGStab:  Solving for HNCO, Initial residual = 0.000697196, Final residual = 2.47049e-07, No Iterations 3
DILUPBiCGStab:  Solving for NCO, Initial residual = 0.00232942, Final residual = 8.21324e-07, No Iterations 3
DILUPBiCGStab:  Solving for AR, Initial residual = 0, Final residual = 0, No Iterations 0
DILUPBiCGStab:  Solving for C3H7, Initial residual = 0.000771436, Final residual = 8.05274e-07, No Iterations 2
DILUPBiCGStab:  Solving for C3H8, Initial residual = 0.000643599, Final residual = 3.68223e-07, No Iterations 3
DILUPBiCGStab:  Solving for CH2CHO, Initial residual = 0.00151404, Final residual = 8.94955e-07, No Iterations 3
DILUPBiCGStab:  Solving for CH3CHO, Initial residual = 0.000855681, Final residual = 4.04847e-07, No Iterations 2
DILUPBiCGStab:  Solving for h, Initial residual = 0.000367663, Final residual = 7.19324e-07, No Iterations 2
min/max(T) = 293, 1929.61
DICPCG:  Solving for p, Initial residual = 0.0169584, Final residual = 0.00155615, No Iterations 5
diagonal:  Solving for rho, Initial residual = 0, Final residual = 0, No Iterations 0
time step continuity errors : sum local = 3.22557e-06, global = 4.75284e-07, cumulative = 0.000656548
DICPCG:  Solving for p, Initial residual = 0.0041271, Final residual = 9.69864e-07, No Iterations 32
diagonal:  Solving for rho, Initial residual = 0, Final residual = 0, No Iterations 0
time step continuity errors : sum local = 2.02172e-09, global = -1.02446e-10, cumulative = 0.000656548
ExecutionTime = 3304.43 s  ClockTime = 5015 s

volFieldValue volFieldValue1 write:
    sum() of T = 801076

Courant Number mean: 0.188567 max: 0.39843
deltaT = 0.000514777
Time = 0.110877

diagonal:  Solving for rho, Initial residual = 0, Final residual = 0, No Iterations 0
[2] Receiver rank: 2 receives from "(1 2 )" own problems "(250 )"
[1] Sender rank: 1 sends to: "(2 0 3 1 )" counts: "(64 66 43 77 )" remaining problems:  77
[0] Receiver rank: 0 receives from "(1 0 )" own problems "(130 )"
[3] Receiver rank: 3 receives from "(1 3 )" own problems "(250 )"
DILUPBiCGStab:  Solving for CH4, Initial residual = 8.6875e-05, Final residual = 4.1672e-07, No Iterations 2
DILUPBiCGStab:  Solving for CH2O, Initial residual = 0.000317422, Final residual = 6.72384e-07, No Iterations 2
DILUPBiCGStab:  Solving for CH3O, Initial residual = 0.00124488, Final residual = 5.00173e-07, No Iterations 3
DILUPBiCGStab:  Solving for H, Initial residual = 0.00171608, Final residual = 3.60784e-07, No Iterations 3
DILUPBiCGStab:  Solving for O2, Initial residual = 0.00014531, Final residual = 3.22698e-07, No Iterations 2
DILUPBiCGStab:  Solving for H2, Initial residual = 0.000738891, Final residual = 3.07087e-07, No Iterations 3
DILUPBiCGStab:  Solving for O, Initial residual = 0.000920624, Final residual = 9.5562e-07, No Iterations 2
DILUPBiCGStab:  Solving for OH, Initial residual = 0.000879249, Final residual = 1.67529e-07, No Iterations 3
DILUPBiCGStab:  Solving for H2O, Initial residual = 0.0007553, Final residual = 3.11643e-07, No Iterations 3
DILUPBiCGStab:  Solving for HO2, Initial residual = 0.00110685, Final residual = 3.30995e-07, No Iterations 3
DILUPBiCGStab:  Solving for H2O2, Initial residual = 0.00129761, Final residual = 6.01123e-07, No Iterations 2
DILUPBiCGStab:  Solving for C, Initial residual = 0.00374599, Final residual = 5.96844e-07, No Iterations 4
DILUPBiCGStab:  Solving for CH, Initial residual = 0.00203844, Final residual = 6.92278e-07, No Iterations 3
DILUPBiCGStab:  Solving for CH2, Initial residual = 0.00119682, Final residual = 6.68341e-07, No Iterations 3
DILUPBiCGStab:  Solving for CH2(S), Initial residual = 0.00132288, Final residual = 6.5327e-07, No Iterations 3
DILUPBiCGStab:  Solving for CH3, Initial residual = 0.000697669, Final residual = 4.57171e-07, No Iterations 3
DILUPBiCGStab:  Solving for CO, Initial residual = 0.000949839, Final residual = 4.38026e-07, No Iterations 3
DILUPBiCGStab:  Solving for CO2, Initial residual = 0.000728211, Final residual = 3.0331e-07, No Iterations 3
DILUPBiCGStab:  Solving for HCO, Initial residual = 0.000892551, Final residual = 2.74332e-07, No Iterations 3
DILUPBiCGStab:  Solving for CH2OH, Initial residual = 0.00118481, Final residual = 5.40339e-07, No Iterations 3
DILUPBiCGStab:  Solving for CH3OH, Initial residual = 0.00071997, Final residual = 2.55109e-07, No Iterations 3
DILUPBiCGStab:  Solving for C2H, Initial residual = 0.00175869, Final residual = 4.18534e-07, No Iterations 3
DILUPBiCGStab:  Solving for C2H2, Initial residual = 0.00070649, Final residual = 3.17951e-07, No Iterations 3
DILUPBiCGStab:  Solving for C2H3, Initial residual = 0.00102981, Final residual = 9.68764e-07, No Iterations 3
DILUPBiCGStab:  Solving for C2H4, Initial residual = 0.000394654, Final residual = 8.05334e-07, No Iterations 2
DILUPBiCGStab:  Solving for C2H5, Initial residual = 0.00087023, Final residual = 7.5882e-07, No Iterations 3
DILUPBiCGStab:  Solving for C2H6, Initial residual = 0.000357407, Final residual = 2.29181e-07, No Iterations 3
DILUPBiCGStab:  Solving for HCCO, Initial residual = 0.00105859, Final residual = 3.95866e-07, No Iterations 3
DILUPBiCGStab:  Solving for CH2CO, Initial residual = 0.000467037, Final residual = 8.96233e-07, No Iterations 2
DILUPBiCGStab:  Solving for HCCOH, Initial residual = 0.00105586, Final residual = 7.51568e-07, No Iterations 3
DILUPBiCGStab:  Solving for N, Initial residual = 0.00283006, Final residual = 6.69982e-07, No Iterations 4
DILUPBiCGStab:  Solving for NH, Initial residual = 0.0021029, Final residual = 8.25925e-07, No Iterations 3
DILUPBiCGStab:  Solving for NH2, Initial residual = 0.0018896, Final residual = 6.85795e-07, No Iterations 3
DILUPBiCGStab:  Solving for NH3, Initial residual = 0.000887185, Final residual = 3.58838e-07, No Iterations 3
DILUPBiCGStab:  Solving for NNH, Initial residual = 0.00171628, Final residual = 3.44227e-07, No Iterations 3
DILUPBiCGStab:  Solving for NO, Initial residual = 0.000821738, Final residual = 6.41936e-07, No Iterations 3
DILUPBiCGStab:  Solving for NO2, Initial residual = 0.00146571, Final residual = 1.02986e-07, No Iterations 3
DILUPBiCGStab:  Solving for N2O, Initial residual = 0.00095679, Final residual = 5.87076e-07, No Iterations 2
DILUPBiCGStab:  Solving for HNO, Initial residual = 0.00124144, Final residual = 3.41717e-07, No Iterations 3
DILUPBiCGStab:  Solving for CN, Initial residual = 0.00430132, Final residual = 4.57777e-07, No Iterations 4
DILUPBiCGStab:  Solving for HCN, Initial residual = 0.0012078, Final residual = 6.38602e-07, No Iterations 3
DILUPBiCGStab:  Solving for H2CN, Initial residual = 0.00223789, Final residual = 7.52155e-07, No Iterations 3
DILUPBiCGStab:  Solving for HCNN, Initial residual = 0.00164638, Final residual = 5.31023e-07, No Iterations 3
DILUPBiCGStab:  Solving for HCNO, Initial residual = 0.000671983, Final residual = 3.81531e-07, No Iterations 3
DILUPBiCGStab:  Solving for HOCN, Initial residual = 0.00219625, Final residual = 3.69921e-07, No Iterations 3
DILUPBiCGStab:  Solving for HNCO, Initial residual = 0.000697426, Final residual = 2.6e-07, No Iterations 3
DILUPBiCGStab:  Solving for NCO, Initial residual = 0.00244409, Final residual = 8.86349e-07, No Iterations 3
DILUPBiCGStab:  Solving for AR, Initial residual = 0, Final residual = 0, No Iterations 0
DILUPBiCGStab:  Solving for C3H7, Initial residual = 0.000779112, Final residual = 7.95967e-07, No Iterations 2
DILUPBiCGStab:  Solving for C3H8, Initial residual = 0.000642937, Final residual = 3.60243e-07, No Iterations 3
DILUPBiCGStab:  Solving for CH2CHO, Initial residual = 0.00150445, Final residual = 8.96655e-07, No Iterations 3
DILUPBiCGStab:  Solving for CH3CHO, Initial residual = 0.000857758, Final residual = 5.02433e-07, No Iterations 2
DILUPBiCGStab:  Solving for h, Initial residual = 0.000361742, Final residual = 7.05485e-07, No Iterations 2
min/max(T) = 293, 1930.06
DICPCG:  Solving for p, Initial residual = 0.0215013, Final residual = 0.00178777, No Iterations 10
diagonal:  Solving for rho, Initial residual = 0, Final residual = 0, No Iterations 0
time step continuity errors : sum local = 3.72772e-06, global = 2.00881e-07, cumulative = 0.000656749
DICPCG:  Solving for p, Initial residual = 0.0042074, Final residual = 7.90186e-07, No Iterations 36
diagonal:  Solving for rho, Initial residual = 0, Final residual = 0, No Iterations 0
time step continuity errors : sum local = 1.6953e-09, global = -1.81307e-11, cumulative = 0.000656749
ExecutionTime = 3326.77 s  ClockTime = 5049 s

volFieldValue volFieldValue1 write:
    sum() of T = 800964

Courant Number mean: 0.188648 max: 0.398841
deltaT = 0.000514777
Time = 0.111392

diagonal:  Solving for rho, Initial residual = 0, Final residual = 0, No Iterations 0
[1] Sender rank: 1 sends to: "(2 0 3 1 )" counts: "(67 70 37 76 )" remaining problems:  76
[3] Receiver rank: 3 receives from "(1 3 )" own problems "(250 )"
[2] Receiver rank: 2 receives from "(1 2 )" own problems "(250 )"
[0] Receiver rank: 0 receives from "(1 0 )" own problems "(130 )"
DILUPBiCGStab:  Solving for CH4, Initial residual = 8.38999e-05, Final residual = 4.16915e-07, No Iterations 2
DILUPBiCGStab:  Solving for CH2O, Initial residual = 0.00031765, Final residual = 6.40089e-07, No Iterations 2
DILUPBiCGStab:  Solving for CH3O, Initial residual = 0.00125743, Final residual = 5.10362e-07, No Iterations 3
DILUPBiCGStab:  Solving for H, Initial residual = 0.00169876, Final residual = 3.60409e-07, No Iterations 3
DILUPBiCGStab:  Solving for O2, Initial residual = 0.000145275, Final residual = 3.00354e-07, No Iterations 2
DILUPBiCGStab:  Solving for H2, Initial residual = 0.000731375, Final residual = 3.1036e-07, No Iterations 3
DILUPBiCGStab:  Solving for O, Initial residual = 0.000905238, Final residual = 9.60339e-07, No Iterations 2
DILUPBiCGStab:  Solving for OH, Initial residual = 0.000866491, Final residual = 1.63335e-07, No Iterations 3
DILUPBiCGStab:  Solving for H2O, Initial residual = 0.000749885, Final residual = 3.51896e-07, No Iterations 3
DILUPBiCGStab:  Solving for HO2, Initial residual = 0.00112349, Final residual = 3.05074e-07, No Iterations 3
DILUPBiCGStab:  Solving for H2O2, Initial residual = 0.00133325, Final residual = 8.07885e-07, No Iterations 2
DILUPBiCGStab:  Solving for C, Initial residual = 0.00373363, Final residual = 5.97782e-07, No Iterations 4
DILUPBiCGStab:  Solving for CH, Initial residual = 0.00199837, Final residual = 7.25083e-07, No Iterations 3
DILUPBiCGStab:  Solving for CH2, Initial residual = 0.00117321, Final residual = 6.43394e-07, No Iterations 3
DILUPBiCGStab:  Solving for CH2(S), Initial residual = 0.00129706, Final residual = 6.25993e-07, No Iterations 3
DILUPBiCGStab:  Solving for CH3, Initial residual = 0.000691186, Final residual = 4.50545e-07, No Iterations 3
DILUPBiCGStab:  Solving for CO, Initial residual = 0.000937186, Final residual = 4.34546e-07, No Iterations 3
DILUPBiCGStab:  Solving for CO2, Initial residual = 0.000725302, Final residual = 3.33394e-07, No Iterations 3
DILUPBiCGStab:  Solving for HCO, Initial residual = 0.000890251, Final residual = 9.90084e-07, No Iterations 3
DILUPBiCGStab:  Solving for CH2OH, Initial residual = 0.00116322, Final residual = 5.09072e-07, No Iterations 3
DILUPBiCGStab:  Solving for CH3OH, Initial residual = 0.000716911, Final residual = 2.46858e-07, No Iterations 3
DILUPBiCGStab:  Solving for C2H, Initial residual = 0.00173002, Final residual = 3.65583e-07, No Iterations 3
DILUPBiCGStab:  Solving for C2H2, Initial residual = 0.000700192, Final residual = 3.22535e-07, No Iterations 3
DILUPBiCGStab:  Solving for C2H3, Initial residual = 0.00101932, Final residual = 9.56743e-07, No Iterations 3
DILUPBiCGStab:  Solving for C2H4, Initial residual = 0.000392022, Final residual = 8.06184e-07, No Iterations 2
DILUPBiCGStab:  Solving for C2H5, Initial residual = 0.000863846, Final residual = 7.45768e-07, No Iterations 3
DILUPBiCGStab:  Solving for C2H6, Initial residual = 0.000356371, Final residual = 2.20189e-07, No Iterations 3
DILUPBiCGStab:  Solving for HCCO, Initial residual = 0.00105291, Final residual = 3.83954e-07, No Iterations 3
DILUPBiCGStab:  Solving for CH2CO, Initial residual = 0.000465424, Final residual = 9.52642e-07, No Iterations 2
DILUPBiCGStab:  Solving for HCCOH, Initial residual = 0.00104264, Final residual = 7.39339e-07, No Iterations 3
DILUPBiCGStab:  Solving for N, Initial residual = 0.0029045, Final residual = 9.04895e-07, No Iterations 4
DILUPBiCGStab:  Solving for NH, Initial residual = 0.00210059, Final residual = 8.42889e-07, No Iterations 3
DILUPBiCGStab:  Solving for NH2, Initial residual = 0.00187685, Final residual = 6.69846e-07, No Iterations 3
DILUPBiCGStab:  Solving for NH3, Initial residual = 0.000883754, Final residual = 3.65725e-07, No Iterations 3
DILUPBiCGStab:  Solving for NNH, Initial residual = 0.0017, Final residual = 3.4409e-07, No Iterations 3
DILUPBiCGStab:  Solving for NO, Initial residual = 0.000820532, Final residual = 6.16598e-07, No Iterations 3
DILUPBiCGStab:  Solving for NO2, Initial residual = 0.00150408, Final residual = 9.81957e-08, No Iterations 3
DILUPBiCGStab:  Solving for N2O, Initial residual = 0.000959231, Final residual = 7.31996e-07, No Iterations 2
DILUPBiCGStab:  Solving for HNO, Initial residual = 0.00126584, Final residual = 3.40261e-07, No Iterations 3
DILUPBiCGStab:  Solving for CN, Initial residual = 0.00433116, Final residual = 4.53077e-07, No Iterations 4
DILUPBiCGStab:  Solving for HCN, Initial residual = 0.00118596, Final residual = 6.43432e-07, No Iterations 3
DILUPBiCGStab:  Solving for H2CN, Initial residual = 0.00222827, Final residual = 7.45389e-07, No Iterations 3
DILUPBiCGStab:  Solving for HCNN, Initial residual = 0.00161056, Final residual = 5.56279e-07, No Iterations 3
DILUPBiCGStab:  Solving for HCNO, Initial residual = 0.000673893, Final residual = 3.72992e-07, No Iterations 3
DILUPBiCGStab:  Solving for HOCN, Initial residual = 0.00217035, Final residual = 3.60164e-07, No Iterations 3
DILUPBiCGStab:  Solving for HNCO, Initial residual = 0.00069933, Final residual = 2.78701e-07, No Iterations 3
DILUPBiCGStab:  Solving for NCO, Initial residual = 0.00252036, Final residual = 9.38588e-07, No Iterations 3
DILUPBiCGStab:  Solving for AR, Initial residual = 0, Final residual = 0, No Iterations 0
DILUPBiCGStab:  Solving for C3H7, Initial residual = 0.000757748, Final residual = 7.93046e-07, No Iterations 2
DILUPBiCGStab:  Solving for C3H8, Initial residual = 0.000643256, Final residual = 3.64031e-07, No Iterations 3
DILUPBiCGStab:  Solving for CH2CHO, Initial residual = 0.00150852, Final residual = 8.89077e-07, No Iterations 3
DILUPBiCGStab:  Solving for CH3CHO, Initial residual = 0.000855977, Final residual = 5.64496e-07, No Iterations 2
DILUPBiCGStab:  Solving for h, Initial residual = 0.000361087, Final residual = 8.09029e-07, No Iterations 2
min/max(T) = 293, 1930.49
DICPCG:  Solving for p, Initial residual = 0.0225333, Final residual = 0.00211475, No Iterations 12
diagonal:  Solving for rho, Initial residual = 0, Final residual = 0, No Iterations 0
time step continuity errors : sum local = 4.46912e-06, global = -6.57778e-07, cumulative = 0.000656091
DICPCG:  Solving for p, Initial residual = 0.00531332, Final residual = 8.5358e-07, No Iterations 35
diagonal:  Solving for rho, Initial residual = 0, Final residual = 0, No Iterations 0
time step continuity errors : sum local = 1.781e-09, global = -2.42134e-11, cumulative = 0.000656091
ExecutionTime = 3349.2 s  ClockTime = 5082 s

volFieldValue volFieldValue1 write:
    sum() of T = 800859

Courant Number mean: 0.188632 max: 0.39901
deltaT = 0.000514777
Time = 0.111906

diagonal:  Solving for rho, Initial residual = 0, Final residual = 0, No Iterations 0
[2] Receiver rank: 2 receives from "(1 2 )" own problems "(250 )"
[1] Sender rank: 1 sends to: "(2 0 3 1 )" counts: "(66 70 40 74 )" remaining problems:  74
[3] Receiver rank: 3 receives from "(1 3 )" own problems "(250 )"
[0] Receiver rank: 0 receives from "(1 0 )" own problems "(130 )"
--------------------------------------------------------------------------
mpirun noticed that process rank 1 with PID 0 on node t20204-lr010 exited on signal 15 (Terminated).
--------------------------------------------------------------------------
