/*---------------------------------------------------------------------------*\
  =========                 |
  \\      /  F ield         | OpenFOAM: The Open Source CFD Toolbox
   \\    /   O peration     | Website:  https://openfoam.org
    \\  /    A nd           | Version:  6
     \\/     M anipulation  |
\*---------------------------------------------------------------------------*/
Build  : 6-fa1285188035
Exec   : chemFoam
Date   : May 18 2020
Time   : 18:37:47
Host   : "peltonp1-All-Series"
PID    : 8108
I/O    : uncollated
Case   : /home/peltonp1/OpenFOAM/peltonp1-6/applications/OpenFOAM-Aalto/tutorials/chemFoam/gri_pyJac
nProcs : 1
sigFpe : Enabling floating point exception trapping (FOAM_SIGFPE).
fileModificationChecking : Monitoring run-time modified files using timeStampMaster (fileModificationSkew 10)
allowSystemOperations : Allowing user-supplied system call operations

// * * * * * * * * * * * * * * * * * * * * * * * * * * * * * * * * * * * * * //
Create time

Overriding DebugSwitches according to controlDict
    SolverPerformance 0;

Constructing single cell mesh

Reading initial conditions.

Creating base fields for time 0
Reading thermophysical properties

Selecting thermodynamics package 
{
    type            heRhoThermo;
    mixture         reactingMixture;
    transport       sutherland;
    thermo          janaf;
    energy          sensibleEnthalpy;
    equationOfState perfectGas;
    specie          specie;
}

Selecting chemistryReader foamChemistryReader
Selecting chemistry solver 
{
    solver          ode;
    method          pyJac;
}

    Oxidizer:
    speciesMassFractions:
        Y(O2) = 0.23
        Y(N2) = 0.77
    elementMassFractions:
        Z(C) = 0
        Z(H) = 0
        Z(O) = 0.23

    Fuel:
    speciesMassFractions:
        Y(CH4) = 1
    elementMassFractions:
        Z(C) = 0.748696
        Z(H) = 0.251321
        Z(O) = 0

    Stoichiomentric mixture fraction Zst = 0.0545128
Selecting ODE solver seulex
Reading/calculating face flux field phi

pressure will be held constant.
 p   = 1.36789e+06 [Pa]
 T   = 1000 [K] 
 rho = 4.5462 [kg/m3]


Starting time loop

deltaT = 8e-08
Time = 8e-08

Qdot = -1005.65, T = 1000, p = 1.36789e+06, CH4 = 0.0551863
ExecutionTime = 0.01 s  ClockTime = 0 s

deltaT = 1.59999e-07
Time = 2.39999e-07

Qdot = -1005.31, T = 1000, p = 1.36789e+06, CH4 = 0.0551863
ExecutionTime = 0.01 s  ClockTime = 0 s

deltaT = 3.19992e-07
Time = 5.59991e-07

Qdot = -1004.62, T = 1000, p = 1.36789e+06, CH4 = 0.0551863
ExecutionTime = 0.01 s  ClockTime = 0 s

deltaT = 6.39964e-07
Time = 1.19996e-06

Qdot = -1003.26, T = 1000, p = 1.36789e+06, CH4 = 0.0551863
ExecutionTime = 0.01 s  ClockTime = 0 s

deltaT = 1.27993e-06
Time = 2.47988e-06

Qdot = -1000.52, T = 1000, p = 1.36789e+06, CH4 = 0.0551863
ExecutionTime = 0.01 s  ClockTime = 0 s

deltaT = 2.55953e-06
Time = 5.03941e-06

Qdot = -995.026, T = 1000, p = 1.36789e+06, CH4 = 0.0551863
ExecutionTime = 0.01 s  ClockTime = 0 s

deltaT = 5.11775e-06
Time = 1.01572e-05

Qdot = -983.973, T = 1000, p = 1.36789e+06, CH4 = 0.0551863
ExecutionTime = 0.01 s  ClockTime = 0 s

deltaT = 1.02355e-05
Time = 2.03927e-05

Qdot = -961.598, T = 1000, p = 1.36789e+06, CH4 = 0.0551863
ExecutionTime = 0.01 s  ClockTime = 0 s

deltaT = 2.045e-05
Time = 4.08427e-05

Qdot = -915.786, T = 1000, p = 1.36789e+06, CH4 = 0.0551863
ExecutionTime = 0.02 s  ClockTime = 0 s

deltaT = 4.08162e-05
Time = 8.16589e-05

Qdot = -819.895, T = 1000, p = 1.36789e+06, CH4 = 0.0551863
ExecutionTime = 0.02 s  ClockTime = 0 s

deltaT = 8.12979e-05
Time = 0.000162957

Qdot = -610.684, T = 1000, p = 1.36789e+06, CH4 = 0.0551863
ExecutionTime = 0.02 s  ClockTime = 0 s

deltaT = 9.93641e-05
Time = 0.000262321

Qdot = -252.04, T = 1000, p = 1.36789e+06, CH4 = 0.0551863
ExecutionTime = 0.02 s  ClockTime = 0 s

deltaT = 9.93641e-05
Time = 0.000361685

Qdot = 205.674, T = 1000, p = 1.36789e+06, CH4 = 0.0551863
ExecutionTime = 0.02 s  ClockTime = 0 s

deltaT = 9.93641e-05
Time = 0.000461049

Qdot = 734.091, T = 1000, p = 1.36789e+06, CH4 = 0.0551863
ExecutionTime = 0.02 s  ClockTime = 0 s

deltaT = 9.93641e-05
Time = 0.000560413

Qdot = 1332.15, T = 1000, p = 1.36789e+06, CH4 = 0.0551862
ExecutionTime = 0.02 s  ClockTime = 0 s

deltaT = 9.93641e-05
Time = 0.000659777

Qdot = 1996.06, T = 1000, p = 1.36789e+06, CH4 = 0.0551862
ExecutionTime = 0.02 s  ClockTime = 0 s

deltaT = 9.93641e-05
Time = 0.000759141

Qdot = 2719.24, T = 1000, p = 1.36789e+06, CH4 = 0.0551862
ExecutionTime = 0.02 s  ClockTime = 0 s

deltaT = 9.93641e-05
Time = 0.000858505

Qdot = 3492.55, T = 1000, p = 1.36789e+06, CH4 = 0.0551861
ExecutionTime = 0.02 s  ClockTime = 0 s

deltaT = 9.93641e-05
Time = 0.000957869

Qdot = 4304.77, T = 1000, p = 1.36789e+06, CH4 = 0.0551861
ExecutionTime = 0.03 s  ClockTime = 0 s

deltaT = 9.93641e-05
Time = 0.00105723

Qdot = 5143.32, T = 1000, p = 1.36789e+06, CH4 = 0.055186
ExecutionTime = 0.03 s  ClockTime = 0 s

deltaT = 9.93641e-05
Time = 0.0011566

Qdot = 5995.05, T = 1000, p = 1.36789e+06, CH4 = 0.055186
ExecutionTime = 0.03 s  ClockTime = 0 s

deltaT = 9.93641e-05
Time = 0.00125596

Qdot = 6847.18, T = 1000, p = 1.36789e+06, CH4 = 0.0551859
ExecutionTime = 0.03 s  ClockTime = 0 s

deltaT = 9.93641e-05
Time = 0.00135533

Qdot = 7687.97, T = 1000, p = 1.36789e+06, CH4 = 0.0551858
ExecutionTime = 0.03 s  ClockTime = 0 s

deltaT = 9.93641e-05
Time = 0.00145469

Qdot = 8507.37, T = 1000, p = 1.36789e+06, CH4 = 0.0551857
ExecutionTime = 0.03 s  ClockTime = 0 s

deltaT = 9.93641e-05
Time = 0.00155405

Qdot = 9297.36, T = 1000, p = 1.36789e+06, CH4 = 0.0551857
ExecutionTime = 0.03 s  ClockTime = 0 s

deltaT = 9.93641e-05
Time = 0.00165342

Qdot = 10052, T = 1000, p = 1.36789e+06, CH4 = 0.0551856
ExecutionTime = 0.03 s  ClockTime = 0 s

deltaT = 9.93641e-05
Time = 0.00175278

Qdot = 10767.6, T = 1000.01, p = 1.36789e+06, CH4 = 0.0551855
ExecutionTime = 0.03 s  ClockTime = 0 s

deltaT = 9.93641e-05
Time = 0.00185215

Qdot = 11442, T = 1000.01, p = 1.36789e+06, CH4 = 0.0551854
ExecutionTime = 0.03 s  ClockTime = 0 s

deltaT = 9.93641e-05
Time = 0.00195151

Qdot = 12074.9, T = 1000.01, p = 1.36789e+06, CH4 = 0.0551853
ExecutionTime = 0.04 s  ClockTime = 0 s

deltaT = 9.93641e-05
Time = 0.00205087

Qdot = 12667.1, T = 1000.01, p = 1.36789e+06, CH4 = 0.0551852
ExecutionTime = 0.04 s  ClockTime = 0 s

deltaT = 9.93641e-05
Time = 0.00215024

Qdot = 13220.3, T = 1000.01, p = 1.36789e+06, CH4 = 0.0551851
ExecutionTime = 0.04 s  ClockTime = 0 s

deltaT = 9.93641e-05
Time = 0.0022496

Qdot = 13736.7, T = 1000.01, p = 1.36789e+06, CH4 = 0.055185
ExecutionTime = 0.04 s  ClockTime = 0 s

deltaT = 9.93641e-05
Time = 0.00234897

Qdot = 14218.9, T = 1000.01, p = 1.36789e+06, CH4 = 0.0551849
ExecutionTime = 0.04 s  ClockTime = 0 s

deltaT = 9.93641e-05
Time = 0.00244833

Qdot = 14671.1, T = 1000.01, p = 1.36789e+06, CH4 = 0.0551848
ExecutionTime = 0.04 s  ClockTime = 0 s

deltaT = 9.93641e-05
Time = 0.00254769

Qdot = 15093.2, T = 1000.01, p = 1.36789e+06, CH4 = 0.0551847
ExecutionTime = 0.04 s  ClockTime = 0 s

deltaT = 9.93641e-05
Time = 0.00264706

Qdot = 15489.6, T = 1000.01, p = 1.36789e+06, CH4 = 0.0551845
ExecutionTime = 0.04 s  ClockTime = 0 s

deltaT = 9.93641e-05
Time = 0.00274642

Qdot = 15862.7, T = 1000.02, p = 1.36789e+06, CH4 = 0.0551844
ExecutionTime = 0.04 s  ClockTime = 0 s

deltaT = 9.93641e-05
Time = 0.00284579

Qdot = 16215.1, T = 1000.02, p = 1.36789e+06, CH4 = 0.0551843
ExecutionTime = 0.04 s  ClockTime = 0 s

deltaT = 9.93641e-05
Time = 0.00294515

Qdot = 16548.7, T = 1000.02, p = 1.36789e+06, CH4 = 0.0551842
ExecutionTime = 0.04 s  ClockTime = 0 s

deltaT = 9.93641e-05
Time = 0.00304451

Qdot = 16865.7, T = 1000.02, p = 1.36789e+06, CH4 = 0.055184
ExecutionTime = 0.05 s  ClockTime = 0 s

deltaT = 9.93641e-05
Time = 0.00314388

Qdot = 17167.8, T = 1000.02, p = 1.36789e+06, CH4 = 0.0551839
ExecutionTime = 0.05 s  ClockTime = 0 s

deltaT = 9.93641e-05
Time = 0.00324324

Qdot = 17456.5, T = 1000.02, p = 1.36789e+06, CH4 = 0.0551838
ExecutionTime = 0.05 s  ClockTime = 0 s

deltaT = 9.93641e-05
Time = 0.00334261

Qdot = 17733.3, T = 1000.02, p = 1.36789e+06, CH4 = 0.0551836
ExecutionTime = 0.05 s  ClockTime = 0 s

deltaT = 9.93641e-05
Time = 0.00344197

Qdot = 17999.5, T = 1000.02, p = 1.36789e+06, CH4 = 0.0551835
ExecutionTime = 0.05 s  ClockTime = 0 s

deltaT = 9.93641e-05
Time = 0.00354134

Qdot = 18256.1, T = 1000.03, p = 1.36789e+06, CH4 = 0.0551834
ExecutionTime = 0.05 s  ClockTime = 0 s

deltaT = 9.93641e-05
Time = 0.0036407

Qdot = 18504.1, T = 1000.03, p = 1.36789e+06, CH4 = 0.0551832
ExecutionTime = 0.05 s  ClockTime = 0 s

deltaT = 9.93641e-05
Time = 0.00374006

Qdot = 18744.5, T = 1000.03, p = 1.36789e+06, CH4 = 0.0551831
ExecutionTime = 0.05 s  ClockTime = 0 s

deltaT = 9.93641e-05
Time = 0.00383943

Qdot = 18978, T = 1000.03, p = 1.36789e+06, CH4 = 0.0551829
ExecutionTime = 0.05 s  ClockTime = 0 s

deltaT = 9.93641e-05
Time = 0.00393879

Qdot = 19205.4, T = 1000.03, p = 1.36789e+06, CH4 = 0.0551828
ExecutionTime = 0.05 s  ClockTime = 0 s

deltaT = 9.93641e-05
Time = 0.00403816

Qdot = 19427.2, T = 1000.03, p = 1.36789e+06, CH4 = 0.0551827
ExecutionTime = 0.05 s  ClockTime = 0 s

deltaT = 9.93641e-05
Time = 0.00413752

Qdot = 19644.1, T = 1000.03, p = 1.36789e+06, CH4 = 0.0551825
ExecutionTime = 0.06 s  ClockTime = 0 s

deltaT = 9.93641e-05
Time = 0.00423688

Qdot = 19856.5, T = 1000.04, p = 1.36789e+06, CH4 = 0.0551824
ExecutionTime = 0.06 s  ClockTime = 0 s

deltaT = 9.93641e-05
Time = 0.00433625

Qdot = 20065.1, T = 1000.04, p = 1.36789e+06, CH4 = 0.0551822
ExecutionTime = 0.06 s  ClockTime = 0 s

deltaT = 9.93641e-05
Time = 0.00443561

Qdot = 20270.1, T = 1000.04, p = 1.36789e+06, CH4 = 0.0551821
ExecutionTime = 0.06 s  ClockTime = 0 s

deltaT = 9.93641e-05
Time = 0.00453498

Qdot = 20471.9, T = 1000.04, p = 1.36789e+06, CH4 = 0.0551819
ExecutionTime = 0.06 s  ClockTime = 0 s

deltaT = 9.93641e-05
Time = 0.00463434

Qdot = 20671, T = 1000.04, p = 1.36789e+06, CH4 = 0.0551818
ExecutionTime = 0.06 s  ClockTime = 0 s

deltaT = 9.93641e-05
Time = 0.0047337

Qdot = 20867.6, T = 1000.04, p = 1.36789e+06, CH4 = 0.0551816
ExecutionTime = 0.06 s  ClockTime = 0 s

deltaT = 9.93641e-05
Time = 0.00483307

Qdot = 21062, T = 1000.05, p = 1.36789e+06, CH4 = 0.0551814
ExecutionTime = 0.06 s  ClockTime = 0 s

deltaT = 9.93641e-05
Time = 0.00493243

Qdot = 21254.6, T = 1000.05, p = 1.36789e+06, CH4 = 0.0551813
ExecutionTime = 0.06 s  ClockTime = 0 s

deltaT = 9.93641e-05
Time = 0.0050318

Qdot = 21445.5, T = 1000.05, p = 1.36789e+06, CH4 = 0.0551811
ExecutionTime = 0.07 s  ClockTime = 0 s

deltaT = 9.93641e-05
Time = 0.00513116

Qdot = 21634.9, T = 1000.05, p = 1.36789e+06, CH4 = 0.055181
ExecutionTime = 0.07 s  ClockTime = 0 s

deltaT = 9.93641e-05
Time = 0.00523052

Qdot = 21823.2, T = 1000.05, p = 1.36789e+06, CH4 = 0.0551808
ExecutionTime = 0.07 s  ClockTime = 0 s

deltaT = 9.93641e-05
Time = 0.00532989

Qdot = 22010.4, T = 1000.05, p = 1.36789e+06, CH4 = 0.0551806
ExecutionTime = 0.07 s  ClockTime = 0 s

deltaT = 9.93641e-05
Time = 0.00542925

Qdot = 22196.8, T = 1000.05, p = 1.36789e+06, CH4 = 0.0551805
ExecutionTime = 0.07 s  ClockTime = 0 s

deltaT = 9.93641e-05
Time = 0.00552862

Qdot = 22382.4, T = 1000.06, p = 1.36789e+06, CH4 = 0.0551803
ExecutionTime = 0.07 s  ClockTime = 0 s

deltaT = 9.93641e-05
Time = 0.00562798

Qdot = 22567.6, T = 1000.06, p = 1.36789e+06, CH4 = 0.0551801
ExecutionTime = 0.07 s  ClockTime = 0 s

deltaT = 9.93641e-05
Time = 0.00572734

Qdot = 22752.3, T = 1000.06, p = 1.36789e+06, CH4 = 0.05518
ExecutionTime = 0.08 s  ClockTime = 0 s

deltaT = 9.93641e-05
Time = 0.00582671

Qdot = 22936.8, T = 1000.06, p = 1.36789e+06, CH4 = 0.0551798
ExecutionTime = 0.08 s  ClockTime = 0 s

deltaT = 9.93641e-05
Time = 0.00592607

Qdot = 23121.1, T = 1000.06, p = 1.36789e+06, CH4 = 0.0551796
ExecutionTime = 0.08 s  ClockTime = 0 s

deltaT = 9.93641e-05
Time = 0.00602544

Qdot = 23305.3, T = 1000.07, p = 1.36789e+06, CH4 = 0.0551795
ExecutionTime = 0.08 s  ClockTime = 0 s

deltaT = 9.93641e-05
Time = 0.0061248

Qdot = 23489.7, T = 1000.07, p = 1.36789e+06, CH4 = 0.0551793
ExecutionTime = 0.08 s  ClockTime = 0 s

deltaT = 9.93641e-05
Time = 0.00622417

Qdot = 23674.1, T = 1000.07, p = 1.36789e+06, CH4 = 0.0551791
ExecutionTime = 0.08 s  ClockTime = 0 s

deltaT = 9.93641e-05
Time = 0.00632353

Qdot = 23858.8, T = 1000.07, p = 1.36789e+06, CH4 = 0.0551789
ExecutionTime = 0.08 s  ClockTime = 0 s

deltaT = 9.93641e-05
Time = 0.00642289

Qdot = 24043.8, T = 1000.07, p = 1.36789e+06, CH4 = 0.0551788
ExecutionTime = 0.08 s  ClockTime = 0 s

deltaT = 9.93641e-05
Time = 0.00652226

Qdot = 24229.2, T = 1000.07, p = 1.36789e+06, CH4 = 0.0551786
ExecutionTime = 0.08 s  ClockTime = 0 s

deltaT = 9.93641e-05
Time = 0.00662162

Qdot = 24415, T = 1000.08, p = 1.36789e+06, CH4 = 0.0551784
ExecutionTime = 0.08 s  ClockTime = 0 s

deltaT = 9.93641e-05
Time = 0.00672099

Qdot = 24601.4, T = 1000.08, p = 1.36789e+06, CH4 = 0.0551782
ExecutionTime = 0.08 s  ClockTime = 0 s

deltaT = 9.93641e-05
Time = 0.00682035

Qdot = 24788.4, T = 1000.08, p = 1.36789e+06, CH4 = 0.055178
ExecutionTime = 0.08 s  ClockTime = 0 s

deltaT = 9.93641e-05
Time = 0.00691971

Qdot = 24975.9, T = 1000.08, p = 1.36789e+06, CH4 = 0.0551779
ExecutionTime = 0.09 s  ClockTime = 0 s

deltaT = 9.93641e-05
Time = 0.00701908

Qdot = 25164.2, T = 1000.08, p = 1.36789e+06, CH4 = 0.0551777
ExecutionTime = 0.09 s  ClockTime = 0 s

deltaT = 9.93641e-05
Time = 0.00711844

Qdot = 25353.2, T = 1000.09, p = 1.36789e+06, CH4 = 0.0551775
ExecutionTime = 0.09 s  ClockTime = 0 s

deltaT = 9.93641e-05
Time = 0.00721781

Qdot = 25543, T = 1000.09, p = 1.36789e+06, CH4 = 0.0551773
ExecutionTime = 0.09 s  ClockTime = 0 s

deltaT = 9.93641e-05
Time = 0.00731717

Qdot = 25733.6, T = 1000.09, p = 1.36789e+06, CH4 = 0.0551771
ExecutionTime = 0.09 s  ClockTime = 0 s

deltaT = 9.93641e-05
Time = 0.00741653

Qdot = 25925.1, T = 1000.09, p = 1.36789e+06, CH4 = 0.0551769
ExecutionTime = 0.09 s  ClockTime = 0 s

deltaT = 9.93641e-05
Time = 0.0075159

Qdot = 26117.5, T = 1000.09, p = 1.36789e+06, CH4 = 0.0551767
ExecutionTime = 0.09 s  ClockTime = 0 s

deltaT = 9.93641e-05
Time = 0.00761526

Qdot = 26310.8, T = 1000.09, p = 1.36789e+06, CH4 = 0.0551765
ExecutionTime = 0.09 s  ClockTime = 0 s

deltaT = 9.93641e-05
Time = 0.00771463

Qdot = 26505.1, T = 1000.1, p = 1.36789e+06, CH4 = 0.0551763
ExecutionTime = 0.09 s  ClockTime = 0 s

deltaT = 9.93641e-05
Time = 0.00781399

Qdot = 26700.4, T = 1000.1, p = 1.36789e+06, CH4 = 0.0551762
ExecutionTime = 0.09 s  ClockTime = 0 s

deltaT = 9.93641e-05
Time = 0.00791335

Qdot = 26896.7, T = 1000.1, p = 1.36789e+06, CH4 = 0.055176
ExecutionTime = 0.09 s  ClockTime = 0 s

deltaT = 9.93641e-05
Time = 0.00801272

Qdot = 27094.1, T = 1000.1, p = 1.36789e+06, CH4 = 0.0551758
ExecutionTime = 0.09 s  ClockTime = 0 s

deltaT = 9.93641e-05
Time = 0.00811208

Qdot = 27292.6, T = 1000.1, p = 1.36789e+06, CH4 = 0.0551756
ExecutionTime = 0.1 s  ClockTime = 0 s

deltaT = 9.93641e-05
Time = 0.00821145

Qdot = 27492.1, T = 1000.11, p = 1.36789e+06, CH4 = 0.0551754
ExecutionTime = 0.1 s  ClockTime = 0 s

deltaT = 9.93641e-05
Time = 0.00831081

Qdot = 27692.9, T = 1000.11, p = 1.36789e+06, CH4 = 0.0551752
ExecutionTime = 0.1 s  ClockTime = 0 s

deltaT = 9.93641e-05
Time = 0.00841017

Qdot = 27894.7, T = 1000.11, p = 1.36789e+06, CH4 = 0.055175
ExecutionTime = 0.1 s  ClockTime = 0 s

deltaT = 9.93641e-05
Time = 0.00850954

Qdot = 28097.8, T = 1000.11, p = 1.36789e+06, CH4 = 0.0551747
ExecutionTime = 0.1 s  ClockTime = 0 s

deltaT = 9.93641e-05
Time = 0.0086089

Qdot = 28302.1, T = 1000.11, p = 1.36789e+06, CH4 = 0.0551745
ExecutionTime = 0.1 s  ClockTime = 0 s

deltaT = 9.93641e-05
Time = 0.00870827

Qdot = 28507.6, T = 1000.12, p = 1.36789e+06, CH4 = 0.0551743
ExecutionTime = 0.1 s  ClockTime = 0 s

deltaT = 9.93641e-05
Time = 0.00880763

Qdot = 28714.3, T = 1000.12, p = 1.36789e+06, CH4 = 0.0551741
ExecutionTime = 0.1 s  ClockTime = 0 s

deltaT = 9.93641e-05
Time = 0.008907

Qdot = 28922.3, T = 1000.12, p = 1.36789e+06, CH4 = 0.0551739
ExecutionTime = 0.1 s  ClockTime = 0 s

deltaT = 9.93641e-05
Time = 0.00900636

Qdot = 29131.6, T = 1000.12, p = 1.36789e+06, CH4 = 0.0551737
ExecutionTime = 0.1 s  ClockTime = 0 s

deltaT = 9.93641e-05
Time = 0.00910572

Qdot = 29342.2, T = 1000.13, p = 1.36789e+06, CH4 = 0.0551735
ExecutionTime = 0.1 s  ClockTime = 0 s

deltaT = 9.93641e-05
Time = 0.00920509

Qdot = 29554.1, T = 1000.13, p = 1.36789e+06, CH4 = 0.0551733
ExecutionTime = 0.1 s  ClockTime = 0 s

deltaT = 9.93641e-05
Time = 0.00930445

Qdot = 29767.4, T = 1000.13, p = 1.36789e+06, CH4 = 0.0551731
ExecutionTime = 0.11 s  ClockTime = 0 s

deltaT = 9.93641e-05
Time = 0.00940382

Qdot = 29982, T = 1000.13, p = 1.36789e+06, CH4 = 0.0551728
ExecutionTime = 0.11 s  ClockTime = 0 s

deltaT = 9.93641e-05
Time = 0.00950318

Qdot = 30198, T = 1000.13, p = 1.36789e+06, CH4 = 0.0551726
ExecutionTime = 0.11 s  ClockTime = 0 s

deltaT = 9.93641e-05
Time = 0.00960254

Qdot = 30415.3, T = 1000.14, p = 1.36789e+06, CH4 = 0.0551724
ExecutionTime = 0.11 s  ClockTime = 0 s

deltaT = 9.93641e-05
Time = 0.00970191

Qdot = 30634.1, T = 1000.14, p = 1.36789e+06, CH4 = 0.0551722
ExecutionTime = 0.11 s  ClockTime = 0 s

deltaT = 9.93641e-05
Time = 0.00980127

Qdot = 30854.3, T = 1000.14, p = 1.36789e+06, CH4 = 0.055172
ExecutionTime = 0.11 s  ClockTime = 0 s

deltaT = 9.93641e-05
Time = 0.00990064

Qdot = 31075.9, T = 1000.14, p = 1.36789e+06, CH4 = 0.0551717
ExecutionTime = 0.11 s  ClockTime = 0 s

deltaT = 9.93641e-05
Time = 0.01

Qdot = 31299, T = 1000.15, p = 1.36789e+06, CH4 = 0.0551715
ExecutionTime = 0.11 s  ClockTime = 0 s

deltaT = 0.0001
Time = 0.0101

Qdot = 31524.3, T = 1000.15, p = 1.36789e+06, CH4 = 0.0551713
ExecutionTime = 0.11 s  ClockTime = 0 s

deltaT = 0.0001
Time = 0.0102

Qdot = 31751.7, T = 1000.15, p = 1.36789e+06, CH4 = 0.055171
ExecutionTime = 0.12 s  ClockTime = 0 s

deltaT = 0.0001
Time = 0.0103

Qdot = 31980.7, T = 1000.15, p = 1.36789e+06, CH4 = 0.0551708
ExecutionTime = 0.12 s  ClockTime = 0 s

deltaT = 0.0001
Time = 0.0104

Qdot = 32211.3, T = 1000.16, p = 1.36789e+06, CH4 = 0.0551706
ExecutionTime = 0.12 s  ClockTime = 0 s

deltaT = 0.0001
Time = 0.0105

Qdot = 32443.3, T = 1000.16, p = 1.36789e+06, CH4 = 0.0551703
ExecutionTime = 0.12 s  ClockTime = 0 s

deltaT = 0.0001
Time = 0.0106

Qdot = 32677, T = 1000.16, p = 1.36789e+06, CH4 = 0.0551701
ExecutionTime = 0.12 s  ClockTime = 0 s

deltaT = 0.0001
Time = 0.0107

Qdot = 32912.2, T = 1000.16, p = 1.36789e+06, CH4 = 0.0551699
ExecutionTime = 0.12 s  ClockTime = 0 s

deltaT = 0.0001
Time = 0.0108

Qdot = 33149, T = 1000.17, p = 1.36789e+06, CH4 = 0.0551696
ExecutionTime = 0.12 s  ClockTime = 0 s

deltaT = 0.0001
Time = 0.0109

Qdot = 33387.4, T = 1000.17, p = 1.36789e+06, CH4 = 0.0551694
ExecutionTime = 0.12 s  ClockTime = 0 s

deltaT = 0.0001
Time = 0.011

Qdot = 33627.4, T = 1000.17, p = 1.36789e+06, CH4 = 0.0551691
ExecutionTime = 0.12 s  ClockTime = 0 s

deltaT = 0.0001
Time = 0.0111

Qdot = 33869, T = 1000.17, p = 1.36789e+06, CH4 = 0.0551689
ExecutionTime = 0.12 s  ClockTime = 0 s

deltaT = 0.0001
Time = 0.0112

Qdot = 34112.4, T = 1000.18, p = 1.36789e+06, CH4 = 0.0551686
ExecutionTime = 0.12 s  ClockTime = 0 s

deltaT = 0.0001
Time = 0.0113

Qdot = 34357.3, T = 1000.18, p = 1.36789e+06, CH4 = 0.0551684
ExecutionTime = 0.12 s  ClockTime = 0 s

deltaT = 0.0001
Time = 0.0114

Qdot = 34604, T = 1000.18, p = 1.36789e+06, CH4 = 0.0551681
ExecutionTime = 0.13 s  ClockTime = 0 s

deltaT = 0.0001
Time = 0.0115

Qdot = 34852.4, T = 1000.18, p = 1.36789e+06, CH4 = 0.0551679
ExecutionTime = 0.13 s  ClockTime = 0 s

deltaT = 0.0001
Time = 0.0116

Qdot = 35102.4, T = 1000.19, p = 1.36789e+06, CH4 = 0.0551676
ExecutionTime = 0.13 s  ClockTime = 0 s

deltaT = 0.0001
Time = 0.0117

Qdot = 35354.2, T = 1000.19, p = 1.36789e+06, CH4 = 0.0551674
ExecutionTime = 0.13 s  ClockTime = 0 s

deltaT = 0.0001
Time = 0.0118

Qdot = 35607.8, T = 1000.19, p = 1.36789e+06, CH4 = 0.0551671
ExecutionTime = 0.13 s  ClockTime = 0 s

deltaT = 0.0001
Time = 0.0119

Qdot = 35863.1, T = 1000.19, p = 1.36789e+06, CH4 = 0.0551669
ExecutionTime = 0.13 s  ClockTime = 0 s

deltaT = 0.0001
Time = 0.012

Qdot = 36120.1, T = 1000.2, p = 1.36789e+06, CH4 = 0.0551666
ExecutionTime = 0.13 s  ClockTime = 0 s

deltaT = 0.0001
Time = 0.0121

Qdot = 36379, T = 1000.2, p = 1.36789e+06, CH4 = 0.0551663
ExecutionTime = 0.13 s  ClockTime = 0 s

deltaT = 0.0001
Time = 0.0122

Qdot = 36639.7, T = 1000.2, p = 1.36789e+06, CH4 = 0.0551661
ExecutionTime = 0.13 s  ClockTime = 0 s

deltaT = 0.0001
Time = 0.0123

Qdot = 36902.2, T = 1000.2, p = 1.36789e+06, CH4 = 0.0551658
ExecutionTime = 0.13 s  ClockTime = 0 s

deltaT = 0.0001
Time = 0.0124

Qdot = 37166.5, T = 1000.21, p = 1.36789e+06, CH4 = 0.0551655
ExecutionTime = 0.13 s  ClockTime = 0 s

deltaT = 0.0001
Time = 0.0125

Qdot = 37432.7, T = 1000.21, p = 1.36789e+06, CH4 = 0.0551653
ExecutionTime = 0.13 s  ClockTime = 0 s

deltaT = 0.0001
Time = 0.0126

Qdot = 37700.8, T = 1000.21, p = 1.36789e+06, CH4 = 0.055165
ExecutionTime = 0.14 s  ClockTime = 0 s

deltaT = 0.0001
Time = 0.0127

Qdot = 37970.7, T = 1000.22, p = 1.36789e+06, CH4 = 0.0551647
ExecutionTime = 0.14 s  ClockTime = 0 s

deltaT = 0.0001
Time = 0.0128

Qdot = 38242.6, T = 1000.22, p = 1.36789e+06, CH4 = 0.0551644
ExecutionTime = 0.14 s  ClockTime = 0 s

deltaT = 0.0001
Time = 0.0129

Qdot = 38516.3, T = 1000.22, p = 1.36789e+06, CH4 = 0.0551642
ExecutionTime = 0.14 s  ClockTime = 0 s

deltaT = 0.0001
Time = 0.013

Qdot = 38792, T = 1000.22, p = 1.36789e+06, CH4 = 0.0551639
ExecutionTime = 0.14 s  ClockTime = 0 s

deltaT = 0.0001
Time = 0.0131

Qdot = 39069.7, T = 1000.23, p = 1.36789e+06, CH4 = 0.0551636
ExecutionTime = 0.14 s  ClockTime = 0 s

deltaT = 0.0001
Time = 0.0132

Qdot = 39349.4, T = 1000.23, p = 1.36789e+06, CH4 = 0.0551633
ExecutionTime = 0.14 s  ClockTime = 0 s

deltaT = 0.0001
Time = 0.0133

Qdot = 39631, T = 1000.23, p = 1.36789e+06, CH4 = 0.055163
ExecutionTime = 0.14 s  ClockTime = 0 s

deltaT = 0.0001
Time = 0.0134

Qdot = 39914.6, T = 1000.24, p = 1.36789e+06, CH4 = 0.0551628
ExecutionTime = 0.14 s  ClockTime = 0 s

deltaT = 0.0001
Time = 0.0135

Qdot = 40200.3, T = 1000.24, p = 1.36789e+06, CH4 = 0.0551625
ExecutionTime = 0.14 s  ClockTime = 0 s

deltaT = 0.0001
Time = 0.0136

Qdot = 40488, T = 1000.24, p = 1.36789e+06, CH4 = 0.0551622
ExecutionTime = 0.14 s  ClockTime = 0 s

deltaT = 0.0001
Time = 0.0137

Qdot = 40777.8, T = 1000.25, p = 1.36789e+06, CH4 = 0.0551619
ExecutionTime = 0.14 s  ClockTime = 0 s

deltaT = 0.0001
Time = 0.0138

Qdot = 41069.6, T = 1000.25, p = 1.36789e+06, CH4 = 0.0551616
ExecutionTime = 0.15 s  ClockTime = 0 s

deltaT = 0.0001
Time = 0.0139

Qdot = 41363.6, T = 1000.25, p = 1.36789e+06, CH4 = 0.0551613
ExecutionTime = 0.15 s  ClockTime = 0 s

deltaT = 0.0001
Time = 0.014

Qdot = 41659.7, T = 1000.25, p = 1.36789e+06, CH4 = 0.055161
ExecutionTime = 0.15 s  ClockTime = 0 s

deltaT = 0.0001
Time = 0.0141

Qdot = 41957.9, T = 1000.26, p = 1.36789e+06, CH4 = 0.0551607
ExecutionTime = 0.15 s  ClockTime = 0 s

deltaT = 0.0001
Time = 0.0142

Qdot = 42258.2, T = 1000.26, p = 1.36789e+06, CH4 = 0.0551604
ExecutionTime = 0.15 s  ClockTime = 0 s

deltaT = 0.0001
Time = 0.0143

Qdot = 42560.8, T = 1000.26, p = 1.36789e+06, CH4 = 0.0551601
ExecutionTime = 0.15 s  ClockTime = 0 s

deltaT = 0.0001
Time = 0.0144

Qdot = 42865.5, T = 1000.27, p = 1.36789e+06, CH4 = 0.0551598
ExecutionTime = 0.15 s  ClockTime = 0 s

deltaT = 0.0001
Time = 0.0145

Qdot = 43172.4, T = 1000.27, p = 1.36789e+06, CH4 = 0.0551595
ExecutionTime = 0.15 s  ClockTime = 0 s

deltaT = 0.0001
Time = 0.0146

Qdot = 43481.6, T = 1000.27, p = 1.36789e+06, CH4 = 0.0551592
ExecutionTime = 0.15 s  ClockTime = 0 s

deltaT = 0.0001
Time = 0.0147

Qdot = 43793, T = 1000.28, p = 1.36789e+06, CH4 = 0.0551589
ExecutionTime = 0.15 s  ClockTime = 0 s

deltaT = 0.0001
Time = 0.0148

Qdot = 44106.7, T = 1000.28, p = 1.36789e+06, CH4 = 0.0551585
ExecutionTime = 0.15 s  ClockTime = 0 s

deltaT = 0.0001
Time = 0.0149

Qdot = 44422.7, T = 1000.28, p = 1.36789e+06, CH4 = 0.0551582
ExecutionTime = 0.15 s  ClockTime = 0 s

deltaT = 0.0001
Time = 0.015

Qdot = 44741, T = 1000.29, p = 1.36789e+06, CH4 = 0.0551579
ExecutionTime = 0.16 s  ClockTime = 0 s

deltaT = 0.0001
Time = 0.0151

Qdot = 45061.7, T = 1000.29, p = 1.36789e+06, CH4 = 0.0551576
ExecutionTime = 0.16 s  ClockTime = 0 s

deltaT = 0.0001
Time = 0.0152

Qdot = 45384.7, T = 1000.29, p = 1.36789e+06, CH4 = 0.0551573
ExecutionTime = 0.16 s  ClockTime = 0 s

deltaT = 0.0001
Time = 0.0153

Qdot = 45710.1, T = 1000.3, p = 1.36789e+06, CH4 = 0.0551569
ExecutionTime = 0.16 s  ClockTime = 0 s

deltaT = 0.0001
Time = 0.0154

Qdot = 46037.8, T = 1000.3, p = 1.36789e+06, CH4 = 0.0551566
ExecutionTime = 0.16 s  ClockTime = 0 s

deltaT = 0.0001
Time = 0.0155

Qdot = 46368, T = 1000.3, p = 1.36789e+06, CH4 = 0.0551563
ExecutionTime = 0.16 s  ClockTime = 0 s

deltaT = 0.0001
Time = 0.0156

Qdot = 46700.7, T = 1000.31, p = 1.36789e+06, CH4 = 0.0551559
ExecutionTime = 0.16 s  ClockTime = 0 s

deltaT = 0.0001
Time = 0.0157

Qdot = 47035.8, T = 1000.31, p = 1.36789e+06, CH4 = 0.0551556
ExecutionTime = 0.16 s  ClockTime = 0 s

deltaT = 0.0001
Time = 0.0158

Qdot = 47373.4, T = 1000.31, p = 1.36789e+06, CH4 = 0.0551553
ExecutionTime = 0.16 s  ClockTime = 0 s

deltaT = 0.0001
Time = 0.0159

Qdot = 47713.5, T = 1000.32, p = 1.36789e+06, CH4 = 0.0551549
ExecutionTime = 0.16 s  ClockTime = 0 s

deltaT = 0.0001
Time = 0.016

Qdot = 48056.2, T = 1000.32, p = 1.36789e+06, CH4 = 0.0551546
ExecutionTime = 0.16 s  ClockTime = 0 s

deltaT = 0.0001
Time = 0.0161

Qdot = 48401.4, T = 1000.33, p = 1.36789e+06, CH4 = 0.0551543
ExecutionTime = 0.16 s  ClockTime = 0 s

deltaT = 0.0001
Time = 0.0162

Qdot = 48749.1, T = 1000.33, p = 1.36789e+06, CH4 = 0.0551539
ExecutionTime = 0.17 s  ClockTime = 0 s

deltaT = 0.0001
Time = 0.0163

Qdot = 49099.5, T = 1000.33, p = 1.36789e+06, CH4 = 0.0551536
ExecutionTime = 0.17 s  ClockTime = 0 s

deltaT = 0.0001
Time = 0.0164

Qdot = 49452.6, T = 1000.34, p = 1.36789e+06, CH4 = 0.0551532
ExecutionTime = 0.17 s  ClockTime = 0 s

deltaT = 0.0001
Time = 0.0165

Qdot = 49808.2, T = 1000.34, p = 1.36789e+06, CH4 = 0.0551529
ExecutionTime = 0.17 s  ClockTime = 0 s

deltaT = 0.0001
Time = 0.0166

Qdot = 50166.6, T = 1000.34, p = 1.36789e+06, CH4 = 0.0551525
ExecutionTime = 0.17 s  ClockTime = 0 s

deltaT = 0.0001
Time = 0.0167

Qdot = 50527.6, T = 1000.35, p = 1.36789e+06, CH4 = 0.0551521
ExecutionTime = 0.17 s  ClockTime = 0 s

deltaT = 0.0001
Time = 0.0168

Qdot = 50891.4, T = 1000.35, p = 1.36789e+06, CH4 = 0.0551518
ExecutionTime = 0.17 s  ClockTime = 0 s

deltaT = 0.0001
Time = 0.0169

Qdot = 51257.9, T = 1000.35, p = 1.36789e+06, CH4 = 0.0551514
ExecutionTime = 0.17 s  ClockTime = 0 s

deltaT = 0.0001
Time = 0.017

Qdot = 51627.2, T = 1000.36, p = 1.36789e+06, CH4 = 0.0551511
ExecutionTime = 0.17 s  ClockTime = 0 s

deltaT = 0.0001
Time = 0.0171

Qdot = 51999.3, T = 1000.36, p = 1.36789e+06, CH4 = 0.0551507
ExecutionTime = 0.17 s  ClockTime = 0 s

deltaT = 0.0001
Time = 0.0172

Qdot = 52374.3, T = 1000.37, p = 1.36789e+06, CH4 = 0.0551503
ExecutionTime = 0.17 s  ClockTime = 0 s

deltaT = 0.0001
Time = 0.0173

Qdot = 52752.1, T = 1000.37, p = 1.36789e+06, CH4 = 0.0551499
ExecutionTime = 0.17 s  ClockTime = 0 s

deltaT = 0.0001
Time = 0.0174

Qdot = 53132.8, T = 1000.37, p = 1.36789e+06, CH4 = 0.0551496
ExecutionTime = 0.18 s  ClockTime = 0 s

deltaT = 0.0001
Time = 0.0175

Qdot = 53516.4, T = 1000.38, p = 1.36789e+06, CH4 = 0.0551492
ExecutionTime = 0.18 s  ClockTime = 0 s

deltaT = 0.0001
Time = 0.0176

Qdot = 53902.9, T = 1000.38, p = 1.36789e+06, CH4 = 0.0551488
ExecutionTime = 0.18 s  ClockTime = 0 s

deltaT = 0.0001
Time = 0.0177

Qdot = 54292.4, T = 1000.39, p = 1.36789e+06, CH4 = 0.0551484
ExecutionTime = 0.18 s  ClockTime = 0 s

deltaT = 0.0001
Time = 0.0178

Qdot = 54684.9, T = 1000.39, p = 1.36789e+06, CH4 = 0.055148
ExecutionTime = 0.18 s  ClockTime = 0 s

deltaT = 0.0001
Time = 0.0179

Qdot = 55080.4, T = 1000.39, p = 1.36789e+06, CH4 = 0.0551477
ExecutionTime = 0.18 s  ClockTime = 0 s

deltaT = 0.0001
Time = 0.018

Qdot = 55479, T = 1000.4, p = 1.36789e+06, CH4 = 0.0551473
ExecutionTime = 0.18 s  ClockTime = 0 s

deltaT = 0.0001
Time = 0.0181

Qdot = 55880.6, T = 1000.4, p = 1.36789e+06, CH4 = 0.0551469
ExecutionTime = 0.18 s  ClockTime = 0 s

deltaT = 0.0001
Time = 0.0182

Qdot = 56285.4, T = 1000.41, p = 1.36789e+06, CH4 = 0.0551465
ExecutionTime = 0.18 s  ClockTime = 0 s

deltaT = 0.0001
Time = 0.0183

Qdot = 56693.3, T = 1000.41, p = 1.36789e+06, CH4 = 0.0551461
ExecutionTime = 0.18 s  ClockTime = 0 s

deltaT = 0.0001
Time = 0.0184

Qdot = 57104.3, T = 1000.42, p = 1.36789e+06, CH4 = 0.0551457
ExecutionTime = 0.18 s  ClockTime = 0 s

deltaT = 0.0001
Time = 0.0185

Qdot = 57518.6, T = 1000.42, p = 1.36789e+06, CH4 = 0.0551453
ExecutionTime = 0.18 s  ClockTime = 0 s

deltaT = 0.0001
Time = 0.0186

Qdot = 57936.1, T = 1000.42, p = 1.36789e+06, CH4 = 0.0551449
ExecutionTime = 0.19 s  ClockTime = 0 s

deltaT = 0.0001
Time = 0.0187

Qdot = 58356.9, T = 1000.43, p = 1.36789e+06, CH4 = 0.0551445
ExecutionTime = 0.19 s  ClockTime = 0 s

deltaT = 0.0001
Time = 0.0188

Qdot = 58780.9, T = 1000.43, p = 1.36789e+06, CH4 = 0.0551441
ExecutionTime = 0.19 s  ClockTime = 0 s

deltaT = 0.0001
Time = 0.0189

Qdot = 59208.3, T = 1000.44, p = 1.36789e+06, CH4 = 0.0551436
ExecutionTime = 0.19 s  ClockTime = 0 s

deltaT = 0.0001
Time = 0.019

Qdot = 59639.1, T = 1000.44, p = 1.36789e+06, CH4 = 0.0551432
ExecutionTime = 0.19 s  ClockTime = 0 s

deltaT = 0.0001
Time = 0.0191

Qdot = 60073.2, T = 1000.45, p = 1.36789e+06, CH4 = 0.0551428
ExecutionTime = 0.19 s  ClockTime = 0 s

deltaT = 0.0001
Time = 0.0192

Qdot = 60510.7, T = 1000.45, p = 1.36789e+06, CH4 = 0.0551424
ExecutionTime = 0.19 s  ClockTime = 0 s

deltaT = 0.0001
Time = 0.0193

Qdot = 60951.8, T = 1000.46, p = 1.36789e+06, CH4 = 0.055142
ExecutionTime = 0.19 s  ClockTime = 0 s

deltaT = 0.0001
Time = 0.0194

Qdot = 61396.3, T = 1000.46, p = 1.36789e+06, CH4 = 0.0551415
ExecutionTime = 0.19 s  ClockTime = 0 s

deltaT = 0.0001
Time = 0.0195

Qdot = 61844.3, T = 1000.46, p = 1.36789e+06, CH4 = 0.0551411
ExecutionTime = 0.19 s  ClockTime = 0 s

deltaT = 0.0001
Time = 0.0196

Qdot = 62295.9, T = 1000.47, p = 1.36789e+06, CH4 = 0.0551407
ExecutionTime = 0.19 s  ClockTime = 0 s

deltaT = 0.0001
Time = 0.0197

Qdot = 62751.1, T = 1000.47, p = 1.36789e+06, CH4 = 0.0551402
ExecutionTime = 0.19 s  ClockTime = 0 s

deltaT = 0.0001
Time = 0.0198

Qdot = 63209.9, T = 1000.48, p = 1.36789e+06, CH4 = 0.0551398
ExecutionTime = 0.2 s  ClockTime = 0 s

deltaT = 0.0001
Time = 0.0199

Qdot = 63672.4, T = 1000.48, p = 1.36789e+06, CH4 = 0.0551393
ExecutionTime = 0.2 s  ClockTime = 0 s

deltaT = 0.0001
Time = 0.02

Qdot = 64138.5, T = 1000.49, p = 1.36789e+06, CH4 = 0.0551389
ExecutionTime = 0.2 s  ClockTime = 0 s

deltaT = 0.0001
Time = 0.0201

Qdot = 64608.5, T = 1000.49, p = 1.36789e+06, CH4 = 0.0551384
ExecutionTime = 0.2 s  ClockTime = 0 s

deltaT = 0.0001
Time = 0.0202

Qdot = 65082.2, T = 1000.5, p = 1.36789e+06, CH4 = 0.055138
ExecutionTime = 0.2 s  ClockTime = 0 s

deltaT = 0.0001
Time = 0.0203

Qdot = 65559.7, T = 1000.5, p = 1.36789e+06, CH4 = 0.0551375
ExecutionTime = 0.2 s  ClockTime = 0 s

deltaT = 0.0001
Time = 0.0204

Qdot = 66041, T = 1000.51, p = 1.36789e+06, CH4 = 0.0551371
ExecutionTime = 0.2 s  ClockTime = 0 s

deltaT = 0.0001
Time = 0.0205

Qdot = 66526.3, T = 1000.51, p = 1.36789e+06, CH4 = 0.0551366
ExecutionTime = 0.2 s  ClockTime = 0 s

deltaT = 0.0001
Time = 0.0206

Qdot = 67015.5, T = 1000.52, p = 1.36789e+06, CH4 = 0.0551362
ExecutionTime = 0.2 s  ClockTime = 0 s

deltaT = 0.0001
Time = 0.0207

Qdot = 67508.6, T = 1000.52, p = 1.36789e+06, CH4 = 0.0551357
ExecutionTime = 0.21 s  ClockTime = 0 s

deltaT = 0.0001
Time = 0.0208

Qdot = 68005.8, T = 1000.53, p = 1.36789e+06, CH4 = 0.0551352
ExecutionTime = 0.21 s  ClockTime = 0 s

deltaT = 0.0001
Time = 0.0209

Qdot = 68507, T = 1000.53, p = 1.36789e+06, CH4 = 0.0551347
ExecutionTime = 0.21 s  ClockTime = 0 s

deltaT = 0.0001
Time = 0.021

Qdot = 69012.3, T = 1000.54, p = 1.36789e+06, CH4 = 0.0551343
ExecutionTime = 0.21 s  ClockTime = 0 s

deltaT = 0.0001
Time = 0.0211

Qdot = 69521.7, T = 1000.54, p = 1.36789e+06, CH4 = 0.0551338
ExecutionTime = 0.21 s  ClockTime = 0 s

deltaT = 0.0001
Time = 0.0212

Qdot = 70035.4, T = 1000.55, p = 1.36789e+06, CH4 = 0.0551333
ExecutionTime = 0.21 s  ClockTime = 0 s

deltaT = 0.0001
Time = 0.0213

Qdot = 70553.2, T = 1000.55, p = 1.36789e+06, CH4 = 0.0551328
ExecutionTime = 0.21 s  ClockTime = 0 s

deltaT = 0.0001
Time = 0.0214

Qdot = 71075.3, T = 1000.56, p = 1.36789e+06, CH4 = 0.0551323
ExecutionTime = 0.21 s  ClockTime = 0 s

deltaT = 0.0001
Time = 0.0215

Qdot = 71601.7, T = 1000.56, p = 1.36789e+06, CH4 = 0.0551318
ExecutionTime = 0.21 s  ClockTime = 0 s

deltaT = 0.0001
Time = 0.0216

Qdot = 72132.4, T = 1000.57, p = 1.36789e+06, CH4 = 0.0551313
ExecutionTime = 0.21 s  ClockTime = 0 s

deltaT = 0.0001
Time = 0.0217

Qdot = 72667.5, T = 1000.57, p = 1.36789e+06, CH4 = 0.0551308
ExecutionTime = 0.21 s  ClockTime = 0 s

deltaT = 0.0001
Time = 0.0218

Qdot = 73207.1, T = 1000.58, p = 1.36789e+06, CH4 = 0.0551303
ExecutionTime = 0.21 s  ClockTime = 0 s

deltaT = 0.0001
Time = 0.0219

Qdot = 73751.2, T = 1000.59, p = 1.36789e+06, CH4 = 0.0551298
ExecutionTime = 0.22 s  ClockTime = 0 s

deltaT = 0.0001
Time = 0.022

Qdot = 74299.7, T = 1000.59, p = 1.36789e+06, CH4 = 0.0551293
ExecutionTime = 0.22 s  ClockTime = 0 s

deltaT = 0.0001
Time = 0.0221

Qdot = 74852.9, T = 1000.6, p = 1.36789e+06, CH4 = 0.0551288
ExecutionTime = 0.22 s  ClockTime = 0 s

deltaT = 0.0001
Time = 0.0222

Qdot = 75410.7, T = 1000.6, p = 1.36789e+06, CH4 = 0.0551283
ExecutionTime = 0.22 s  ClockTime = 0 s

deltaT = 0.0001
Time = 0.0223

Qdot = 75973.2, T = 1000.61, p = 1.36789e+06, CH4 = 0.0551277
ExecutionTime = 0.22 s  ClockTime = 0 s

deltaT = 0.0001
Time = 0.0224

Qdot = 76540.3, T = 1000.61, p = 1.36789e+06, CH4 = 0.0551272
ExecutionTime = 0.22 s  ClockTime = 0 s

deltaT = 0.0001
Time = 0.0225

Qdot = 77112.3, T = 1000.62, p = 1.36789e+06, CH4 = 0.0551267
ExecutionTime = 0.22 s  ClockTime = 0 s

deltaT = 0.0001
Time = 0.0226

Qdot = 77689.1, T = 1000.63, p = 1.36789e+06, CH4 = 0.0551261
ExecutionTime = 0.22 s  ClockTime = 0 s

deltaT = 0.0001
Time = 0.0227

Qdot = 78270.7, T = 1000.63, p = 1.36789e+06, CH4 = 0.0551256
ExecutionTime = 0.22 s  ClockTime = 0 s

deltaT = 0.0001
Time = 0.0228

Qdot = 78857.3, T = 1000.64, p = 1.36789e+06, CH4 = 0.0551251
ExecutionTime = 0.22 s  ClockTime = 0 s

deltaT = 0.0001
Time = 0.0229

Qdot = 79448.8, T = 1000.64, p = 1.36789e+06, CH4 = 0.0551245
ExecutionTime = 0.22 s  ClockTime = 0 s

deltaT = 0.0001
Time = 0.023

Qdot = 80045.4, T = 1000.65, p = 1.36789e+06, CH4 = 0.055124
ExecutionTime = 0.23 s  ClockTime = 0 s

deltaT = 0.0001
Time = 0.0231

Qdot = 80647.1, T = 1000.66, p = 1.36789e+06, CH4 = 0.0551234
ExecutionTime = 0.23 s  ClockTime = 0 s

deltaT = 0.0001
Time = 0.0232

Qdot = 81253.9, T = 1000.66, p = 1.36789e+06, CH4 = 0.0551229
ExecutionTime = 0.23 s  ClockTime = 0 s

deltaT = 0.0001
Time = 0.0233

Qdot = 81865.9, T = 1000.67, p = 1.36789e+06, CH4 = 0.0551223
ExecutionTime = 0.23 s  ClockTime = 0 s

deltaT = 0.0001
Time = 0.0234

Qdot = 82483.1, T = 1000.67, p = 1.36789e+06, CH4 = 0.0551217
ExecutionTime = 0.23 s  ClockTime = 0 s

deltaT = 0.0001
Time = 0.0235

Qdot = 83105.7, T = 1000.68, p = 1.36789e+06, CH4 = 0.0551212
ExecutionTime = 0.23 s  ClockTime = 0 s

deltaT = 0.0001
Time = 0.0236

Qdot = 83733.6, T = 1000.69, p = 1.36789e+06, CH4 = 0.0551206
ExecutionTime = 0.23 s  ClockTime = 0 s

deltaT = 0.0001
Time = 0.0237

Qdot = 84366.9, T = 1000.69, p = 1.36789e+06, CH4 = 0.05512
ExecutionTime = 0.23 s  ClockTime = 0 s

deltaT = 0.0001
Time = 0.0238

Qdot = 85005.7, T = 1000.7, p = 1.36789e+06, CH4 = 0.0551194
ExecutionTime = 0.23 s  ClockTime = 0 s

deltaT = 0.0001
Time = 0.0239

Qdot = 85650, T = 1000.7, p = 1.36789e+06, CH4 = 0.0551189
ExecutionTime = 0.23 s  ClockTime = 0 s

deltaT = 0.0001
Time = 0.024

Qdot = 86299.9, T = 1000.71, p = 1.36789e+06, CH4 = 0.0551183
ExecutionTime = 0.23 s  ClockTime = 0 s

deltaT = 0.0001
Time = 0.0241

Qdot = 86955.5, T = 1000.72, p = 1.36789e+06, CH4 = 0.0551177
ExecutionTime = 0.24 s  ClockTime = 0 s

deltaT = 0.0001
Time = 0.0242

Qdot = 87616.8, T = 1000.72, p = 1.36789e+06, CH4 = 0.0551171
ExecutionTime = 0.24 s  ClockTime = 0 s

deltaT = 0.0001
Time = 0.0243

Qdot = 88283.9, T = 1000.73, p = 1.36789e+06, CH4 = 0.0551165
ExecutionTime = 0.24 s  ClockTime = 0 s

deltaT = 0.0001
Time = 0.0244

Qdot = 88956.8, T = 1000.74, p = 1.36789e+06, CH4 = 0.0551159
ExecutionTime = 0.24 s  ClockTime = 0 s

deltaT = 0.0001
Time = 0.0245

Qdot = 89635.7, T = 1000.74, p = 1.36789e+06, CH4 = 0.0551153
ExecutionTime = 0.24 s  ClockTime = 0 s

deltaT = 0.0001
Time = 0.0246

Qdot = 90320.5, T = 1000.75, p = 1.36789e+06, CH4 = 0.0551146
ExecutionTime = 0.24 s  ClockTime = 0 s

deltaT = 0.0001
Time = 0.0247

Qdot = 91011.4, T = 1000.76, p = 1.36789e+06, CH4 = 0.055114
ExecutionTime = 0.24 s  ClockTime = 0 s

deltaT = 0.0001
Time = 0.0248

Qdot = 91708.3, T = 1000.76, p = 1.36789e+06, CH4 = 0.0551134
ExecutionTime = 0.24 s  ClockTime = 0 s

deltaT = 0.0001
Time = 0.0249

Qdot = 92411.5, T = 1000.77, p = 1.36789e+06, CH4 = 0.0551128
ExecutionTime = 0.24 s  ClockTime = 0 s

deltaT = 0.0001
Time = 0.025

Qdot = 93120.9, T = 1000.78, p = 1.36789e+06, CH4 = 0.0551121
ExecutionTime = 0.24 s  ClockTime = 0 s

deltaT = 0.0001
Time = 0.0251

Qdot = 93836.6, T = 1000.79, p = 1.36789e+06, CH4 = 0.0551115
ExecutionTime = 0.24 s  ClockTime = 1 s

deltaT = 0.0001
Time = 0.0252

Qdot = 94558.7, T = 1000.79, p = 1.36789e+06, CH4 = 0.0551109
ExecutionTime = 0.24 s  ClockTime = 1 s

deltaT = 0.0001
Time = 0.0253

Qdot = 95287.2, T = 1000.8, p = 1.36789e+06, CH4 = 0.0551102
ExecutionTime = 0.25 s  ClockTime = 1 s

deltaT = 0.0001
Time = 0.0254

Qdot = 96022.3, T = 1000.81, p = 1.36789e+06, CH4 = 0.0551096
ExecutionTime = 0.25 s  ClockTime = 1 s

deltaT = 0.0001
Time = 0.0255

Qdot = 96764, T = 1000.81, p = 1.36789e+06, CH4 = 0.0551089
ExecutionTime = 0.25 s  ClockTime = 1 s

deltaT = 0.0001
Time = 0.0256

Qdot = 97512.3, T = 1000.82, p = 1.36789e+06, CH4 = 0.0551083
ExecutionTime = 0.25 s  ClockTime = 1 s

deltaT = 0.0001
Time = 0.0257

Qdot = 98267.5, T = 1000.83, p = 1.36789e+06, CH4 = 0.0551076
ExecutionTime = 0.25 s  ClockTime = 1 s

deltaT = 0.0001
Time = 0.0258

Qdot = 99029.4, T = 1000.84, p = 1.36789e+06, CH4 = 0.0551069
ExecutionTime = 0.25 s  ClockTime = 1 s

deltaT = 0.0001
Time = 0.0259

Qdot = 99798.3, T = 1000.84, p = 1.36789e+06, CH4 = 0.0551062
ExecutionTime = 0.25 s  ClockTime = 1 s

deltaT = 0.0001
Time = 0.026

Qdot = 100574, T = 1000.85, p = 1.36789e+06, CH4 = 0.0551056
ExecutionTime = 0.25 s  ClockTime = 1 s

deltaT = 0.0001
Time = 0.0261

Qdot = 101357, T = 1000.86, p = 1.36789e+06, CH4 = 0.0551049
ExecutionTime = 0.25 s  ClockTime = 1 s

deltaT = 0.0001
Time = 0.0262

Qdot = 102147, T = 1000.87, p = 1.36789e+06, CH4 = 0.0551042
ExecutionTime = 0.25 s  ClockTime = 1 s

deltaT = 0.0001
Time = 0.0263

Qdot = 102944, T = 1000.87, p = 1.36789e+06, CH4 = 0.0551035
ExecutionTime = 0.25 s  ClockTime = 1 s

deltaT = 0.0001
Time = 0.0264

Qdot = 103749, T = 1000.88, p = 1.36789e+06, CH4 = 0.0551028
ExecutionTime = 0.26 s  ClockTime = 1 s

deltaT = 0.0001
Time = 0.0265

Qdot = 104561, T = 1000.89, p = 1.36789e+06, CH4 = 0.0551021
ExecutionTime = 0.26 s  ClockTime = 1 s

deltaT = 0.0001
Time = 0.0266

Qdot = 105381, T = 1000.9, p = 1.36789e+06, CH4 = 0.0551014
ExecutionTime = 0.26 s  ClockTime = 1 s

deltaT = 0.0001
Time = 0.0267

Qdot = 106208, T = 1000.9, p = 1.36789e+06, CH4 = 0.0551007
ExecutionTime = 0.26 s  ClockTime = 1 s

deltaT = 0.0001
Time = 0.0268

Qdot = 107043, T = 1000.91, p = 1.36789e+06, CH4 = 0.0551
ExecutionTime = 0.26 s  ClockTime = 1 s

deltaT = 0.0001
Time = 0.0269

Qdot = 107885, T = 1000.92, p = 1.36789e+06, CH4 = 0.0550992
ExecutionTime = 0.26 s  ClockTime = 1 s

deltaT = 0.0001
Time = 0.027

Qdot = 108736, T = 1000.93, p = 1.36789e+06, CH4 = 0.0550985
ExecutionTime = 0.26 s  ClockTime = 1 s

deltaT = 0.0001
Time = 0.0271

Qdot = 109594, T = 1000.94, p = 1.36789e+06, CH4 = 0.0550978
ExecutionTime = 0.27 s  ClockTime = 1 s

deltaT = 0.0001
Time = 0.0272

Qdot = 110460, T = 1000.95, p = 1.36789e+06, CH4 = 0.055097
ExecutionTime = 0.27 s  ClockTime = 1 s

deltaT = 0.0001
Time = 0.0273

Qdot = 111335, T = 1000.95, p = 1.36789e+06, CH4 = 0.0550963
ExecutionTime = 0.27 s  ClockTime = 1 s

deltaT = 0.0001
Time = 0.0274

Qdot = 112217, T = 1000.96, p = 1.36789e+06, CH4 = 0.0550955
ExecutionTime = 0.27 s  ClockTime = 1 s

deltaT = 0.0001
Time = 0.0275

Qdot = 113108, T = 1000.97, p = 1.36789e+06, CH4 = 0.0550948
ExecutionTime = 0.27 s  ClockTime = 1 s

deltaT = 0.0001
Time = 0.0276

Qdot = 114008, T = 1000.98, p = 1.36789e+06, CH4 = 0.055094
ExecutionTime = 0.27 s  ClockTime = 1 s

deltaT = 0.0001
Time = 0.0277

Qdot = 114916, T = 1000.99, p = 1.36789e+06, CH4 = 0.0550932
ExecutionTime = 0.27 s  ClockTime = 1 s

deltaT = 0.0001
Time = 0.0278

Qdot = 115832, T = 1001, p = 1.36789e+06, CH4 = 0.0550925
ExecutionTime = 0.27 s  ClockTime = 1 s

deltaT = 0.0001
Time = 0.0279

Qdot = 116758, T = 1001, p = 1.36789e+06, CH4 = 0.0550917
ExecutionTime = 0.27 s  ClockTime = 1 s

deltaT = 0.0001
Time = 0.028

Qdot = 117692, T = 1001.01, p = 1.36789e+06, CH4 = 0.0550909
ExecutionTime = 0.28 s  ClockTime = 1 s

deltaT = 0.0001
Time = 0.0281

Qdot = 118635, T = 1001.02, p = 1.36789e+06, CH4 = 0.0550901
ExecutionTime = 0.28 s  ClockTime = 1 s

deltaT = 0.0001
Time = 0.0282

Qdot = 119587, T = 1001.03, p = 1.36789e+06, CH4 = 0.0550893
ExecutionTime = 0.28 s  ClockTime = 1 s

deltaT = 0.0001
Time = 0.0283

Qdot = 120548, T = 1001.04, p = 1.36789e+06, CH4 = 0.0550885
ExecutionTime = 0.28 s  ClockTime = 1 s

deltaT = 0.0001
Time = 0.0284

Qdot = 121519, T = 1001.05, p = 1.36789e+06, CH4 = 0.0550877
ExecutionTime = 0.28 s  ClockTime = 1 s

deltaT = 0.0001
Time = 0.0285

Qdot = 122499, T = 1001.06, p = 1.36789e+06, CH4 = 0.0550869
ExecutionTime = 0.28 s  ClockTime = 1 s

deltaT = 0.0001
Time = 0.0286

Qdot = 123489, T = 1001.07, p = 1.36789e+06, CH4 = 0.055086
ExecutionTime = 0.29 s  ClockTime = 1 s

deltaT = 0.0001
Time = 0.0287

Qdot = 124488, T = 1001.08, p = 1.36789e+06, CH4 = 0.0550852
ExecutionTime = 0.29 s  ClockTime = 1 s

deltaT = 0.0001
Time = 0.0288

Qdot = 125496, T = 1001.09, p = 1.36789e+06, CH4 = 0.0550844
ExecutionTime = 0.29 s  ClockTime = 1 s

deltaT = 0.0001
Time = 0.0289

Qdot = 126515, T = 1001.1, p = 1.36789e+06, CH4 = 0.0550835
ExecutionTime = 0.29 s  ClockTime = 1 s

deltaT = 0.0001
Time = 0.029

Qdot = 127544, T = 1001.11, p = 1.36789e+06, CH4 = 0.0550827
ExecutionTime = 0.29 s  ClockTime = 1 s

deltaT = 0.0001
Time = 0.0291

Qdot = 128583, T = 1001.11, p = 1.36789e+06, CH4 = 0.0550818
ExecutionTime = 0.29 s  ClockTime = 1 s

deltaT = 0.0001
Time = 0.0292

Qdot = 129632, T = 1001.12, p = 1.36789e+06, CH4 = 0.055081
ExecutionTime = 0.29 s  ClockTime = 1 s

deltaT = 0.0001
Time = 0.0293

Qdot = 130691, T = 1001.13, p = 1.36789e+06, CH4 = 0.0550801
ExecutionTime = 0.29 s  ClockTime = 1 s

deltaT = 0.0001
Time = 0.0294

Qdot = 131761, T = 1001.14, p = 1.36789e+06, CH4 = 0.0550792
ExecutionTime = 0.3 s  ClockTime = 1 s

deltaT = 0.0001
Time = 0.0295

Qdot = 132842, T = 1001.15, p = 1.36789e+06, CH4 = 0.0550784
ExecutionTime = 0.3 s  ClockTime = 1 s

deltaT = 0.0001
Time = 0.0296

Qdot = 133933, T = 1001.16, p = 1.36789e+06, CH4 = 0.0550775
ExecutionTime = 0.3 s  ClockTime = 1 s

deltaT = 0.0001
Time = 0.0297

Qdot = 135035, T = 1001.17, p = 1.36789e+06, CH4 = 0.0550766
ExecutionTime = 0.3 s  ClockTime = 1 s

deltaT = 0.0001
Time = 0.0298

Qdot = 136149, T = 1001.18, p = 1.36789e+06, CH4 = 0.0550757
ExecutionTime = 0.3 s  ClockTime = 1 s

deltaT = 0.0001
Time = 0.0299

Qdot = 137273, T = 1001.19, p = 1.36789e+06, CH4 = 0.0550748
ExecutionTime = 0.3 s  ClockTime = 1 s

deltaT = 0.0001
Time = 0.03

Qdot = 138409, T = 1001.2, p = 1.36789e+06, CH4 = 0.0550739
ExecutionTime = 0.3 s  ClockTime = 1 s

deltaT = 0.0001
Time = 0.0301

Qdot = 139556, T = 1001.21, p = 1.36789e+06, CH4 = 0.0550729
ExecutionTime = 0.3 s  ClockTime = 1 s

deltaT = 0.0001
Time = 0.0302

Qdot = 140715, T = 1001.23, p = 1.36789e+06, CH4 = 0.055072
ExecutionTime = 0.31 s  ClockTime = 1 s

deltaT = 0.0001
Time = 0.0303

Qdot = 141886, T = 1001.24, p = 1.36789e+06, CH4 = 0.0550711
ExecutionTime = 0.31 s  ClockTime = 1 s

deltaT = 0.0001
Time = 0.0304

Qdot = 143068, T = 1001.25, p = 1.36789e+06, CH4 = 0.0550701
ExecutionTime = 0.31 s  ClockTime = 1 s

deltaT = 0.0001
Time = 0.0305

Qdot = 144263, T = 1001.26, p = 1.36789e+06, CH4 = 0.0550692
ExecutionTime = 0.31 s  ClockTime = 1 s

deltaT = 0.0001
Time = 0.0306

Qdot = 145470, T = 1001.27, p = 1.36789e+06, CH4 = 0.0550682
ExecutionTime = 0.31 s  ClockTime = 1 s

deltaT = 0.0001
Time = 0.0307

Qdot = 146689, T = 1001.28, p = 1.36789e+06, CH4 = 0.0550673
ExecutionTime = 0.31 s  ClockTime = 1 s

deltaT = 0.0001
Time = 0.0308

Qdot = 147921, T = 1001.29, p = 1.36789e+06, CH4 = 0.0550663
ExecutionTime = 0.31 s  ClockTime = 1 s

deltaT = 0.0001
Time = 0.0309

Qdot = 149166, T = 1001.3, p = 1.36789e+06, CH4 = 0.0550653
ExecutionTime = 0.31 s  ClockTime = 1 s

deltaT = 0.0001
Time = 0.031

Qdot = 150424, T = 1001.31, p = 1.36789e+06, CH4 = 0.0550643
ExecutionTime = 0.32 s  ClockTime = 1 s

deltaT = 0.0001
Time = 0.0311

Qdot = 151694, T = 1001.32, p = 1.36789e+06, CH4 = 0.0550633
ExecutionTime = 0.32 s  ClockTime = 1 s

deltaT = 0.0001
Time = 0.0312

Qdot = 152978, T = 1001.34, p = 1.36789e+06, CH4 = 0.0550623
ExecutionTime = 0.32 s  ClockTime = 1 s

deltaT = 0.0001
Time = 0.0313

Qdot = 154275, T = 1001.35, p = 1.36789e+06, CH4 = 0.0550613
ExecutionTime = 0.32 s  ClockTime = 1 s

deltaT = 0.0001
Time = 0.0314

Qdot = 155586, T = 1001.36, p = 1.36789e+06, CH4 = 0.0550603
ExecutionTime = 0.32 s  ClockTime = 1 s

deltaT = 0.0001
Time = 0.0315

Qdot = 156911, T = 1001.37, p = 1.36789e+06, CH4 = 0.0550593
ExecutionTime = 0.32 s  ClockTime = 1 s

deltaT = 0.0001
Time = 0.0316

Qdot = 158250, T = 1001.38, p = 1.36789e+06, CH4 = 0.0550582
ExecutionTime = 0.32 s  ClockTime = 1 s

deltaT = 0.0001
Time = 0.0317

Qdot = 159603, T = 1001.39, p = 1.36789e+06, CH4 = 0.0550572
ExecutionTime = 0.32 s  ClockTime = 1 s

deltaT = 0.0001
Time = 0.0318

Qdot = 160970, T = 1001.41, p = 1.36789e+06, CH4 = 0.0550561
ExecutionTime = 0.32 s  ClockTime = 1 s

deltaT = 0.0001
Time = 0.0319

Qdot = 162352, T = 1001.42, p = 1.36789e+06, CH4 = 0.0550551
ExecutionTime = 0.33 s  ClockTime = 1 s

deltaT = 0.0001
Time = 0.032

Qdot = 163749, T = 1001.43, p = 1.36789e+06, CH4 = 0.055054
ExecutionTime = 0.33 s  ClockTime = 1 s

deltaT = 0.0001
Time = 0.0321

Qdot = 165160, T = 1001.44, p = 1.36789e+06, CH4 = 0.0550529
ExecutionTime = 0.33 s  ClockTime = 1 s

deltaT = 0.0001
Time = 0.0322

Qdot = 166587, T = 1001.45, p = 1.36789e+06, CH4 = 0.0550518
ExecutionTime = 0.33 s  ClockTime = 1 s

deltaT = 0.0001
Time = 0.0323

Qdot = 168029, T = 1001.47, p = 1.36789e+06, CH4 = 0.0550507
ExecutionTime = 0.33 s  ClockTime = 1 s

deltaT = 0.0001
Time = 0.0324

Qdot = 169487, T = 1001.48, p = 1.36789e+06, CH4 = 0.0550496
ExecutionTime = 0.33 s  ClockTime = 1 s

deltaT = 0.0001
Time = 0.0325

Qdot = 170961, T = 1001.49, p = 1.36789e+06, CH4 = 0.0550485
ExecutionTime = 0.33 s  ClockTime = 1 s

deltaT = 0.0001
Time = 0.0326

Qdot = 172450, T = 1001.51, p = 1.36789e+06, CH4 = 0.0550474
ExecutionTime = 0.33 s  ClockTime = 1 s

deltaT = 0.0001
Time = 0.0327

Qdot = 173956, T = 1001.52, p = 1.36789e+06, CH4 = 0.0550463
ExecutionTime = 0.33 s  ClockTime = 1 s

deltaT = 0.0001
Time = 0.0328

Qdot = 175479, T = 1001.53, p = 1.36789e+06, CH4 = 0.0550451
ExecutionTime = 0.33 s  ClockTime = 1 s

deltaT = 0.0001
Time = 0.0329

Qdot = 177018, T = 1001.54, p = 1.36789e+06, CH4 = 0.055044
ExecutionTime = 0.33 s  ClockTime = 1 s

deltaT = 0.0001
Time = 0.033

Qdot = 178574, T = 1001.56, p = 1.36789e+06, CH4 = 0.0550428
ExecutionTime = 0.33 s  ClockTime = 1 s

deltaT = 0.0001
Time = 0.0331

Qdot = 180147, T = 1001.57, p = 1.36789e+06, CH4 = 0.0550416
ExecutionTime = 0.33 s  ClockTime = 1 s

deltaT = 0.0001
Time = 0.0332

Qdot = 181738, T = 1001.58, p = 1.36789e+06, CH4 = 0.0550405
ExecutionTime = 0.34 s  ClockTime = 1 s

deltaT = 0.0001
Time = 0.0333

Qdot = 183347, T = 1001.6, p = 1.36789e+06, CH4 = 0.0550393
ExecutionTime = 0.34 s  ClockTime = 1 s

deltaT = 0.0001
Time = 0.0334

Qdot = 184973, T = 1001.61, p = 1.36789e+06, CH4 = 0.0550381
ExecutionTime = 0.34 s  ClockTime = 1 s

deltaT = 0.0001
Time = 0.0335

Qdot = 186618, T = 1001.63, p = 1.36789e+06, CH4 = 0.0550369
ExecutionTime = 0.34 s  ClockTime = 1 s

deltaT = 0.0001
Time = 0.0336

Qdot = 188281, T = 1001.64, p = 1.36789e+06, CH4 = 0.0550357
ExecutionTime = 0.34 s  ClockTime = 1 s

deltaT = 0.0001
Time = 0.0337

Qdot = 189963, T = 1001.65, p = 1.36789e+06, CH4 = 0.0550344
ExecutionTime = 0.34 s  ClockTime = 1 s

deltaT = 0.0001
Time = 0.0338

Qdot = 191664, T = 1001.67, p = 1.36789e+06, CH4 = 0.0550332
ExecutionTime = 0.34 s  ClockTime = 1 s

deltaT = 0.0001
Time = 0.0339

Qdot = 193385, T = 1001.68, p = 1.36789e+06, CH4 = 0.0550319
ExecutionTime = 0.34 s  ClockTime = 1 s

deltaT = 0.0001
Time = 0.034

Qdot = 195125, T = 1001.7, p = 1.36789e+06, CH4 = 0.0550307
ExecutionTime = 0.34 s  ClockTime = 1 s

deltaT = 0.0001
Time = 0.0341

Qdot = 196884, T = 1001.71, p = 1.36789e+06, CH4 = 0.0550294
ExecutionTime = 0.35 s  ClockTime = 1 s

deltaT = 0.0001
Time = 0.0342

Qdot = 198664, T = 1001.73, p = 1.36789e+06, CH4 = 0.0550281
ExecutionTime = 0.35 s  ClockTime = 1 s

deltaT = 0.0001
Time = 0.0343

Qdot = 200465, T = 1001.74, p = 1.36789e+06, CH4 = 0.0550268
ExecutionTime = 0.35 s  ClockTime = 1 s

deltaT = 0.0001
Time = 0.0344

Qdot = 202287, T = 1001.76, p = 1.36789e+06, CH4 = 0.0550255
ExecutionTime = 0.35 s  ClockTime = 1 s

deltaT = 0.0001
Time = 0.0345

Qdot = 204129, T = 1001.77, p = 1.36789e+06, CH4 = 0.0550242
ExecutionTime = 0.35 s  ClockTime = 1 s

deltaT = 0.0001
Time = 0.0346

Qdot = 205993, T = 1001.79, p = 1.36789e+06, CH4 = 0.0550229
ExecutionTime = 0.35 s  ClockTime = 1 s

deltaT = 0.0001
Time = 0.0347

Qdot = 207879, T = 1001.8, p = 1.36789e+06, CH4 = 0.0550216
ExecutionTime = 0.35 s  ClockTime = 1 s

deltaT = 0.0001
Time = 0.0348

Qdot = 209787, T = 1001.82, p = 1.36789e+06, CH4 = 0.0550202
ExecutionTime = 0.35 s  ClockTime = 1 s

deltaT = 0.0001
Time = 0.0349

Qdot = 211717, T = 1001.83, p = 1.36789e+06, CH4 = 0.0550189
ExecutionTime = 0.35 s  ClockTime = 1 s

deltaT = 0.0001
Time = 0.035

Qdot = 213670, T = 1001.85, p = 1.36789e+06, CH4 = 0.0550175
ExecutionTime = 0.35 s  ClockTime = 1 s

deltaT = 0.0001
Time = 0.0351

Qdot = 215646, T = 1001.87, p = 1.36789e+06, CH4 = 0.0550161
ExecutionTime = 0.36 s  ClockTime = 1 s

deltaT = 0.0001
Time = 0.0352

Qdot = 217646, T = 1001.88, p = 1.36789e+06, CH4 = 0.0550147
ExecutionTime = 0.36 s  ClockTime = 1 s

deltaT = 0.0001
Time = 0.0353

Qdot = 219669, T = 1001.9, p = 1.36789e+06, CH4 = 0.0550133
ExecutionTime = 0.36 s  ClockTime = 1 s

deltaT = 0.0001
Time = 0.0354

Qdot = 221717, T = 1001.92, p = 1.36789e+06, CH4 = 0.0550119
ExecutionTime = 0.36 s  ClockTime = 1 s

deltaT = 0.0001
Time = 0.0355

Qdot = 223789, T = 1001.93, p = 1.36789e+06, CH4 = 0.0550105
ExecutionTime = 0.36 s  ClockTime = 1 s

deltaT = 0.0001
Time = 0.0356

Qdot = 225887, T = 1001.95, p = 1.36789e+06, CH4 = 0.055009
ExecutionTime = 0.36 s  ClockTime = 1 s

deltaT = 0.0001
Time = 0.0357

Qdot = 228010, T = 1001.97, p = 1.36789e+06, CH4 = 0.0550076
ExecutionTime = 0.36 s  ClockTime = 1 s

deltaT = 0.0001
Time = 0.0358

Qdot = 230158, T = 1001.98, p = 1.36789e+06, CH4 = 0.0550061
ExecutionTime = 0.36 s  ClockTime = 1 s

deltaT = 0.0001
Time = 0.0359

Qdot = 232333, T = 1002, p = 1.36789e+06, CH4 = 0.0550046
ExecutionTime = 0.36 s  ClockTime = 1 s

deltaT = 0.0001
Time = 0.036

Qdot = 234534, T = 1002.02, p = 1.36789e+06, CH4 = 0.0550031
ExecutionTime = 0.36 s  ClockTime = 1 s

deltaT = 0.0001
Time = 0.0361

Qdot = 236763, T = 1002.04, p = 1.36789e+06, CH4 = 0.0550016
ExecutionTime = 0.37 s  ClockTime = 1 s

deltaT = 0.0001
Time = 0.0362

Qdot = 239019, T = 1002.05, p = 1.36789e+06, CH4 = 0.0550001
ExecutionTime = 0.37 s  ClockTime = 1 s

deltaT = 0.0001
Time = 0.0363

Qdot = 241303, T = 1002.07, p = 1.36789e+06, CH4 = 0.0549986
ExecutionTime = 0.37 s  ClockTime = 1 s

deltaT = 0.0001
Time = 0.0364

Qdot = 243615, T = 1002.09, p = 1.36789e+06, CH4 = 0.054997
ExecutionTime = 0.37 s  ClockTime = 1 s

deltaT = 0.0001
Time = 0.0365

Qdot = 245956, T = 1002.11, p = 1.36789e+06, CH4 = 0.0549954
ExecutionTime = 0.37 s  ClockTime = 1 s

deltaT = 0.0001
Time = 0.0366

Qdot = 248326, T = 1002.13, p = 1.36789e+06, CH4 = 0.0549939
ExecutionTime = 0.37 s  ClockTime = 1 s

deltaT = 0.0001
Time = 0.0367

Qdot = 250727, T = 1002.14, p = 1.36789e+06, CH4 = 0.0549923
ExecutionTime = 0.37 s  ClockTime = 1 s

deltaT = 0.0001
Time = 0.0368

Qdot = 253157, T = 1002.16, p = 1.36789e+06, CH4 = 0.0549907
ExecutionTime = 0.37 s  ClockTime = 1 s

deltaT = 0.0001
Time = 0.0369

Qdot = 255619, T = 1002.18, p = 1.36789e+06, CH4 = 0.0549891
ExecutionTime = 0.37 s  ClockTime = 1 s

deltaT = 0.0001
Time = 0.037

Qdot = 258111, T = 1002.2, p = 1.36789e+06, CH4 = 0.0549874
ExecutionTime = 0.37 s  ClockTime = 1 s

deltaT = 0.0001
Time = 0.0371

Qdot = 260636, T = 1002.22, p = 1.36789e+06, CH4 = 0.0549858
ExecutionTime = 0.38 s  ClockTime = 1 s

deltaT = 0.0001
Time = 0.0372

Qdot = 263193, T = 1002.24, p = 1.36789e+06, CH4 = 0.0549841
ExecutionTime = 0.38 s  ClockTime = 1 s

deltaT = 0.0001
Time = 0.0373

Qdot = 265782, T = 1002.26, p = 1.36789e+06, CH4 = 0.0549824
ExecutionTime = 0.38 s  ClockTime = 1 s

deltaT = 0.0001
Time = 0.0374

Qdot = 268406, T = 1002.28, p = 1.36789e+06, CH4 = 0.0549807
ExecutionTime = 0.38 s  ClockTime = 1 s

deltaT = 0.0001
Time = 0.0375

Qdot = 271063, T = 1002.3, p = 1.36789e+06, CH4 = 0.054979
ExecutionTime = 0.38 s  ClockTime = 1 s

deltaT = 0.0001
Time = 0.0376

Qdot = 273755, T = 1002.32, p = 1.36789e+06, CH4 = 0.0549773
ExecutionTime = 0.38 s  ClockTime = 1 s

deltaT = 0.0001
Time = 0.0377

Qdot = 276482, T = 1002.34, p = 1.36789e+06, CH4 = 0.0549756
ExecutionTime = 0.38 s  ClockTime = 1 s

deltaT = 0.0001
Time = 0.0378

Qdot = 279245, T = 1002.36, p = 1.36789e+06, CH4 = 0.0549738
ExecutionTime = 0.38 s  ClockTime = 1 s

deltaT = 0.0001
Time = 0.0379

Qdot = 282045, T = 1002.38, p = 1.36789e+06, CH4 = 0.054972
ExecutionTime = 0.38 s  ClockTime = 1 s

deltaT = 0.0001
Time = 0.038

Qdot = 284881, T = 1002.4, p = 1.36789e+06, CH4 = 0.0549702
ExecutionTime = 0.38 s  ClockTime = 1 s

deltaT = 0.0001
Time = 0.0381

Qdot = 287756, T = 1002.43, p = 1.36789e+06, CH4 = 0.0549684
ExecutionTime = 0.39 s  ClockTime = 1 s

deltaT = 0.0001
Time = 0.0382

Qdot = 290668, T = 1002.45, p = 1.36789e+06, CH4 = 0.0549666
ExecutionTime = 0.39 s  ClockTime = 1 s

deltaT = 0.0001
Time = 0.0383

Qdot = 293620, T = 1002.47, p = 1.36789e+06, CH4 = 0.0549648
ExecutionTime = 0.39 s  ClockTime = 1 s

deltaT = 0.0001
Time = 0.0384

Qdot = 296612, T = 1002.49, p = 1.36789e+06, CH4 = 0.0549629
ExecutionTime = 0.39 s  ClockTime = 1 s

deltaT = 0.0001
Time = 0.0385

Qdot = 299644, T = 1002.51, p = 1.36789e+06, CH4 = 0.054961
ExecutionTime = 0.39 s  ClockTime = 1 s

deltaT = 0.0001
Time = 0.0386

Qdot = 302717, T = 1002.54, p = 1.36789e+06, CH4 = 0.0549591
ExecutionTime = 0.39 s  ClockTime = 1 s

deltaT = 0.0001
Time = 0.0387

Qdot = 305833, T = 1002.56, p = 1.36789e+06, CH4 = 0.0549572
ExecutionTime = 0.39 s  ClockTime = 1 s

deltaT = 0.0001
Time = 0.0388

Qdot = 308991, T = 1002.58, p = 1.36789e+06, CH4 = 0.0549553
ExecutionTime = 0.39 s  ClockTime = 1 s

deltaT = 0.0001
Time = 0.0389

Qdot = 312192, T = 1002.61, p = 1.36789e+06, CH4 = 0.0549533
ExecutionTime = 0.39 s  ClockTime = 1 s

deltaT = 0.0001
Time = 0.039

Qdot = 315438, T = 1002.63, p = 1.36789e+06, CH4 = 0.0549514
ExecutionTime = 0.4 s  ClockTime = 1 s

deltaT = 0.0001
Time = 0.0391

Qdot = 318729, T = 1002.65, p = 1.36789e+06, CH4 = 0.0549494
ExecutionTime = 0.4 s  ClockTime = 1 s

deltaT = 0.0001
Time = 0.0392

Qdot = 322066, T = 1002.68, p = 1.36789e+06, CH4 = 0.0549474
ExecutionTime = 0.4 s  ClockTime = 1 s

deltaT = 0.0001
Time = 0.0393

Qdot = 325450, T = 1002.7, p = 1.36789e+06, CH4 = 0.0549453
ExecutionTime = 0.4 s  ClockTime = 1 s

deltaT = 0.0001
Time = 0.0394

Qdot = 328881, T = 1002.73, p = 1.36789e+06, CH4 = 0.0549433
ExecutionTime = 0.4 s  ClockTime = 1 s

deltaT = 0.0001
Time = 0.0395

Qdot = 332361, T = 1002.75, p = 1.36789e+06, CH4 = 0.0549412
ExecutionTime = 0.4 s  ClockTime = 1 s

deltaT = 0.0001
Time = 0.0396

Qdot = 335890, T = 1002.78, p = 1.36789e+06, CH4 = 0.0549391
ExecutionTime = 0.4 s  ClockTime = 1 s

deltaT = 0.0001
Time = 0.0397

Qdot = 339470, T = 1002.8, p = 1.36789e+06, CH4 = 0.054937
ExecutionTime = 0.4 s  ClockTime = 1 s

deltaT = 0.0001
Time = 0.0398

Qdot = 343101, T = 1002.83, p = 1.36789e+06, CH4 = 0.0549349
ExecutionTime = 0.4 s  ClockTime = 1 s

deltaT = 0.0001
Time = 0.0399

Qdot = 346785, T = 1002.85, p = 1.36789e+06, CH4 = 0.0549327
ExecutionTime = 0.4 s  ClockTime = 1 s

deltaT = 0.0001
Time = 0.04

Qdot = 350521, T = 1002.88, p = 1.36789e+06, CH4 = 0.0549306
ExecutionTime = 0.4 s  ClockTime = 1 s

deltaT = 0.0001
Time = 0.0401

Qdot = 354312, T = 1002.9, p = 1.36789e+06, CH4 = 0.0549284
ExecutionTime = 0.42 s  ClockTime = 1 s

deltaT = 0.0001
Time = 0.0402

Qdot = 358159, T = 1002.93, p = 1.36789e+06, CH4 = 0.0549262
ExecutionTime = 0.42 s  ClockTime = 1 s

deltaT = 0.0001
Time = 0.0403

Qdot = 362062, T = 1002.96, p = 1.36789e+06, CH4 = 0.0549239
ExecutionTime = 0.42 s  ClockTime = 1 s

deltaT = 0.0001
Time = 0.0404

Qdot = 366023, T = 1002.99, p = 1.36789e+06, CH4 = 0.0549217
ExecutionTime = 0.42 s  ClockTime = 1 s

deltaT = 0.0001
Time = 0.0405

Qdot = 370042, T = 1003.01, p = 1.36789e+06, CH4 = 0.0549194
ExecutionTime = 0.42 s  ClockTime = 1 s

deltaT = 0.0001
Time = 0.0406

Qdot = 374121, T = 1003.04, p = 1.36789e+06, CH4 = 0.0549171
ExecutionTime = 0.42 s  ClockTime = 1 s

deltaT = 0.0001
Time = 0.0407

Qdot = 378262, T = 1003.07, p = 1.36789e+06, CH4 = 0.0549147
ExecutionTime = 0.42 s  ClockTime = 1 s

deltaT = 0.0001
Time = 0.0408

Qdot = 382464, T = 1003.1, p = 1.36789e+06, CH4 = 0.0549124
ExecutionTime = 0.42 s  ClockTime = 1 s

deltaT = 0.0001
Time = 0.0409

Qdot = 386731, T = 1003.13, p = 1.36789e+06, CH4 = 0.05491
ExecutionTime = 0.42 s  ClockTime = 1 s

deltaT = 0.0001
Time = 0.041

Qdot = 391062, T = 1003.16, p = 1.36789e+06, CH4 = 0.0549076
ExecutionTime = 0.42 s  ClockTime = 1 s

deltaT = 0.0001
Time = 0.0411

Qdot = 395459, T = 1003.18, p = 1.36789e+06, CH4 = 0.0549051
ExecutionTime = 0.43 s  ClockTime = 1 s

deltaT = 0.0001
Time = 0.0412

Qdot = 399924, T = 1003.21, p = 1.36789e+06, CH4 = 0.0549027
ExecutionTime = 0.43 s  ClockTime = 1 s

deltaT = 0.0001
Time = 0.0413

Qdot = 404457, T = 1003.24, p = 1.36789e+06, CH4 = 0.0549002
ExecutionTime = 0.43 s  ClockTime = 1 s

deltaT = 0.0001
Time = 0.0414

Qdot = 409061, T = 1003.27, p = 1.36789e+06, CH4 = 0.0548977
ExecutionTime = 0.43 s  ClockTime = 1 s

deltaT = 0.0001
Time = 0.0415

Qdot = 413737, T = 1003.31, p = 1.36789e+06, CH4 = 0.0548952
ExecutionTime = 0.43 s  ClockTime = 1 s

deltaT = 0.0001
Time = 0.0416

Qdot = 418486, T = 1003.34, p = 1.36789e+06, CH4 = 0.0548926
ExecutionTime = 0.43 s  ClockTime = 1 s

deltaT = 0.0001
Time = 0.0417

Qdot = 423310, T = 1003.37, p = 1.36789e+06, CH4 = 0.05489
ExecutionTime = 0.43 s  ClockTime = 1 s

deltaT = 0.0001
Time = 0.0418

Qdot = 428210, T = 1003.4, p = 1.36789e+06, CH4 = 0.0548874
ExecutionTime = 0.44 s  ClockTime = 1 s

deltaT = 0.0001
Time = 0.0419

Qdot = 433188, T = 1003.43, p = 1.36789e+06, CH4 = 0.0548847
ExecutionTime = 0.44 s  ClockTime = 1 s

deltaT = 0.0001
Time = 0.042

Qdot = 438246, T = 1003.47, p = 1.36789e+06, CH4 = 0.0548821
ExecutionTime = 0.44 s  ClockTime = 1 s

deltaT = 0.0001
Time = 0.0421

Qdot = 443385, T = 1003.5, p = 1.36789e+06, CH4 = 0.0548794
ExecutionTime = 0.44 s  ClockTime = 1 s

deltaT = 0.0001
Time = 0.0422

Qdot = 448608, T = 1003.53, p = 1.36789e+06, CH4 = 0.0548766
ExecutionTime = 0.44 s  ClockTime = 1 s

deltaT = 0.0001
Time = 0.0423

Qdot = 453915, T = 1003.57, p = 1.36789e+06, CH4 = 0.0548739
ExecutionTime = 0.44 s  ClockTime = 1 s

deltaT = 0.0001
Time = 0.0424

Qdot = 459309, T = 1003.6, p = 1.36789e+06, CH4 = 0.0548711
ExecutionTime = 0.44 s  ClockTime = 1 s

deltaT = 0.0001
Time = 0.0425

Qdot = 464792, T = 1003.63, p = 1.36789e+06, CH4 = 0.0548682
ExecutionTime = 0.44 s  ClockTime = 1 s

deltaT = 0.0001
Time = 0.0426

Qdot = 470365, T = 1003.67, p = 1.36789e+06, CH4 = 0.0548654
ExecutionTime = 0.44 s  ClockTime = 1 s

deltaT = 0.0001
Time = 0.0427

Qdot = 476031, T = 1003.7, p = 1.36789e+06, CH4 = 0.0548625
ExecutionTime = 0.44 s  ClockTime = 1 s

deltaT = 0.0001
Time = 0.0428

Qdot = 481792, T = 1003.74, p = 1.36789e+06, CH4 = 0.0548596
ExecutionTime = 0.45 s  ClockTime = 1 s

deltaT = 0.0001
Time = 0.0429

Qdot = 487650, T = 1003.78, p = 1.36789e+06, CH4 = 0.0548566
ExecutionTime = 0.45 s  ClockTime = 1 s

deltaT = 0.0001
Time = 0.043

Qdot = 493606, T = 1003.81, p = 1.36789e+06, CH4 = 0.0548536
ExecutionTime = 0.45 s  ClockTime = 1 s

deltaT = 0.0001
Time = 0.0431

Qdot = 499664, T = 1003.85, p = 1.36789e+06, CH4 = 0.0548506
ExecutionTime = 0.45 s  ClockTime = 1 s

deltaT = 0.0001
Time = 0.0432

Qdot = 505826, T = 1003.89, p = 1.36789e+06, CH4 = 0.0548475
ExecutionTime = 0.45 s  ClockTime = 1 s

deltaT = 0.0001
Time = 0.0433

Qdot = 512093, T = 1003.93, p = 1.36789e+06, CH4 = 0.0548444
ExecutionTime = 0.45 s  ClockTime = 1 s

deltaT = 0.0001
Time = 0.0434

Qdot = 518469, T = 1003.96, p = 1.36789e+06, CH4 = 0.0548413
ExecutionTime = 0.45 s  ClockTime = 1 s

deltaT = 0.0001
Time = 0.0435

Qdot = 524956, T = 1004, p = 1.36789e+06, CH4 = 0.0548381
ExecutionTime = 0.45 s  ClockTime = 1 s

deltaT = 0.0001
Time = 0.0436

Qdot = 531557, T = 1004.04, p = 1.36789e+06, CH4 = 0.0548349
ExecutionTime = 0.45 s  ClockTime = 1 s

deltaT = 0.0001
Time = 0.0437

Qdot = 538274, T = 1004.08, p = 1.36789e+06, CH4 = 0.0548317
ExecutionTime = 0.45 s  ClockTime = 1 s

deltaT = 0.0001
Time = 0.0438

Qdot = 545109, T = 1004.12, p = 1.36789e+06, CH4 = 0.0548284
ExecutionTime = 0.46 s  ClockTime = 1 s

deltaT = 0.0001
Time = 0.0439

Qdot = 552067, T = 1004.17, p = 1.36789e+06, CH4 = 0.0548251
ExecutionTime = 0.46 s  ClockTime = 1 s

deltaT = 0.0001
Time = 0.044

Qdot = 559149, T = 1004.21, p = 1.36789e+06, CH4 = 0.0548217
ExecutionTime = 0.46 s  ClockTime = 1 s

deltaT = 0.0001
Time = 0.0441

Qdot = 566359, T = 1004.25, p = 1.36789e+06, CH4 = 0.0548183
ExecutionTime = 0.46 s  ClockTime = 1 s

deltaT = 0.0001
Time = 0.0442

Qdot = 573700, T = 1004.29, p = 1.36789e+06, CH4 = 0.0548149
ExecutionTime = 0.46 s  ClockTime = 1 s

deltaT = 0.0001
Time = 0.0443

Qdot = 581176, T = 1004.33, p = 1.36789e+06, CH4 = 0.0548114
ExecutionTime = 0.46 s  ClockTime = 1 s

deltaT = 0.0001
Time = 0.0444

Qdot = 588788, T = 1004.38, p = 1.36789e+06, CH4 = 0.0548079
ExecutionTime = 0.46 s  ClockTime = 1 s

deltaT = 0.0001
Time = 0.0445

Qdot = 596542, T = 1004.42, p = 1.36789e+06, CH4 = 0.0548043
ExecutionTime = 0.46 s  ClockTime = 1 s

deltaT = 0.0001
Time = 0.0446

Qdot = 604439, T = 1004.47, p = 1.36789e+06, CH4 = 0.0548007
ExecutionTime = 0.46 s  ClockTime = 1 s

deltaT = 0.0001
Time = 0.0447

Qdot = 612485, T = 1004.51, p = 1.36789e+06, CH4 = 0.054797
ExecutionTime = 0.46 s  ClockTime = 1 s

deltaT = 0.0001
Time = 0.0448

Qdot = 620682, T = 1004.56, p = 1.36789e+06, CH4 = 0.0547933
ExecutionTime = 0.47 s  ClockTime = 1 s

deltaT = 0.0001
Time = 0.0449

Qdot = 629035, T = 1004.61, p = 1.36789e+06, CH4 = 0.0547896
ExecutionTime = 0.47 s  ClockTime = 1 s

deltaT = 0.0001
Time = 0.045

Qdot = 637548, T = 1004.65, p = 1.36789e+06, CH4 = 0.0547858
ExecutionTime = 0.47 s  ClockTime = 1 s

deltaT = 0.0001
Time = 0.0451

Qdot = 646224, T = 1004.7, p = 1.36789e+06, CH4 = 0.054782
ExecutionTime = 0.47 s  ClockTime = 1 s

deltaT = 0.0001
Time = 0.0452

Qdot = 655068, T = 1004.75, p = 1.36789e+06, CH4 = 0.0547781
ExecutionTime = 0.47 s  ClockTime = 1 s

deltaT = 0.0001
Time = 0.0453

Qdot = 664084, T = 1004.8, p = 1.36789e+06, CH4 = 0.0547741
ExecutionTime = 0.47 s  ClockTime = 1 s

deltaT = 0.0001
Time = 0.0454

Qdot = 673278, T = 1004.85, p = 1.36789e+06, CH4 = 0.0547701
ExecutionTime = 0.47 s  ClockTime = 1 s

deltaT = 0.0001
Time = 0.0455

Qdot = 682652, T = 1004.9, p = 1.36789e+06, CH4 = 0.0547661
ExecutionTime = 0.47 s  ClockTime = 1 s

deltaT = 0.0001
Time = 0.0456

Qdot = 692214, T = 1004.95, p = 1.36789e+06, CH4 = 0.054762
ExecutionTime = 0.47 s  ClockTime = 1 s

deltaT = 0.0001
Time = 0.0457

Qdot = 701966, T = 1005, p = 1.36789e+06, CH4 = 0.0547578
ExecutionTime = 0.47 s  ClockTime = 1 s

deltaT = 0.0001
Time = 0.0458

Qdot = 711916, T = 1005.06, p = 1.36789e+06, CH4 = 0.0547536
ExecutionTime = 0.48 s  ClockTime = 1 s

deltaT = 0.0001
Time = 0.0459

Qdot = 722067, T = 1005.11, p = 1.36789e+06, CH4 = 0.0547493
ExecutionTime = 0.48 s  ClockTime = 1 s

deltaT = 0.0001
Time = 0.046

Qdot = 732426, T = 1005.17, p = 1.36789e+06, CH4 = 0.054745
ExecutionTime = 0.48 s  ClockTime = 1 s

deltaT = 0.0001
Time = 0.0461

Qdot = 742999, T = 1005.22, p = 1.36789e+06, CH4 = 0.0547406
ExecutionTime = 0.48 s  ClockTime = 1 s

deltaT = 0.0001
Time = 0.0462

Qdot = 753790, T = 1005.28, p = 1.36789e+06, CH4 = 0.0547362
ExecutionTime = 0.48 s  ClockTime = 1 s

deltaT = 0.0001
Time = 0.0463

Qdot = 764807, T = 1005.33, p = 1.36789e+06, CH4 = 0.0547317
ExecutionTime = 0.48 s  ClockTime = 1 s

deltaT = 0.0001
Time = 0.0464

Qdot = 776056, T = 1005.39, p = 1.36789e+06, CH4 = 0.0547271
ExecutionTime = 0.48 s  ClockTime = 1 s

deltaT = 0.0001
Time = 0.0465

Qdot = 787543, T = 1005.45, p = 1.36789e+06, CH4 = 0.0547225
ExecutionTime = 0.48 s  ClockTime = 1 s

deltaT = 0.0001
Time = 0.0466

Qdot = 799276, T = 1005.51, p = 1.36789e+06, CH4 = 0.0547178
ExecutionTime = 0.48 s  ClockTime = 1 s

deltaT = 0.0001
Time = 0.0467

Qdot = 811261, T = 1005.57, p = 1.36789e+06, CH4 = 0.0547131
ExecutionTime = 0.48 s  ClockTime = 1 s

deltaT = 0.0001
Time = 0.0468

Qdot = 823506, T = 1005.63, p = 1.36789e+06, CH4 = 0.0547083
ExecutionTime = 0.49 s  ClockTime = 1 s

deltaT = 0.0001
Time = 0.0469

Qdot = 836019, T = 1005.69, p = 1.36789e+06, CH4 = 0.0547034
ExecutionTime = 0.49 s  ClockTime = 1 s

deltaT = 0.0001
Time = 0.047

Qdot = 848806, T = 1005.76, p = 1.36789e+06, CH4 = 0.0546984
ExecutionTime = 0.49 s  ClockTime = 1 s

deltaT = 0.0001
Time = 0.0471

Qdot = 861878, T = 1005.82, p = 1.36789e+06, CH4 = 0.0546934
ExecutionTime = 0.49 s  ClockTime = 1 s

deltaT = 0.0001
Time = 0.0472

Qdot = 875242, T = 1005.89, p = 1.36789e+06, CH4 = 0.0546883
ExecutionTime = 0.49 s  ClockTime = 1 s

deltaT = 0.0001
Time = 0.0473

Qdot = 888906, T = 1005.95, p = 1.36789e+06, CH4 = 0.0546831
ExecutionTime = 0.49 s  ClockTime = 1 s

deltaT = 0.0001
Time = 0.0474

Qdot = 902881, T = 1006.02, p = 1.36789e+06, CH4 = 0.0546778
ExecutionTime = 0.49 s  ClockTime = 1 s

deltaT = 0.0001
Time = 0.0475

Qdot = 917176, T = 1006.09, p = 1.36789e+06, CH4 = 0.0546725
ExecutionTime = 0.49 s  ClockTime = 1 s

deltaT = 0.0001
Time = 0.0476

Qdot = 931801, T = 1006.16, p = 1.36789e+06, CH4 = 0.0546671
ExecutionTime = 0.49 s  ClockTime = 1 s

deltaT = 0.0001
Time = 0.0477

Qdot = 946766, T = 1006.23, p = 1.36789e+06, CH4 = 0.0546616
ExecutionTime = 0.49 s  ClockTime = 1 s

deltaT = 0.0001
Time = 0.0478

Qdot = 962082, T = 1006.3, p = 1.36789e+06, CH4 = 0.054656
ExecutionTime = 0.5 s  ClockTime = 1 s

deltaT = 0.0001
Time = 0.0479

Qdot = 977760, T = 1006.37, p = 1.36789e+06, CH4 = 0.0546504
ExecutionTime = 0.5 s  ClockTime = 1 s

deltaT = 0.0001
Time = 0.048

Qdot = 993812, T = 1006.45, p = 1.36789e+06, CH4 = 0.0546446
ExecutionTime = 0.5 s  ClockTime = 1 s

deltaT = 0.0001
Time = 0.0481

Qdot = 1.01025e+06, T = 1006.52, p = 1.36789e+06, CH4 = 0.0546388
ExecutionTime = 0.5 s  ClockTime = 1 s

deltaT = 0.0001
Time = 0.0482

Qdot = 1.02709e+06, T = 1006.6, p = 1.36789e+06, CH4 = 0.0546329
ExecutionTime = 0.5 s  ClockTime = 1 s

deltaT = 0.0001
Time = 0.0483

Qdot = 1.04434e+06, T = 1006.67, p = 1.36789e+06, CH4 = 0.0546268
ExecutionTime = 0.5 s  ClockTime = 1 s

deltaT = 0.0001
Time = 0.0484

Qdot = 1.06201e+06, T = 1006.75, p = 1.36789e+06, CH4 = 0.0546207
ExecutionTime = 0.5 s  ClockTime = 1 s

deltaT = 0.0001
Time = 0.0485

Qdot = 1.08012e+06, T = 1006.83, p = 1.36789e+06, CH4 = 0.0546145
ExecutionTime = 0.5 s  ClockTime = 1 s

deltaT = 0.0001
Time = 0.0486

Qdot = 1.09869e+06, T = 1006.92, p = 1.36789e+06, CH4 = 0.0546082
ExecutionTime = 0.5 s  ClockTime = 1 s

deltaT = 0.0001
Time = 0.0487

Qdot = 1.11773e+06, T = 1007, p = 1.36789e+06, CH4 = 0.0546018
ExecutionTime = 0.5 s  ClockTime = 1 s

deltaT = 0.0001
Time = 0.0488

Qdot = 1.13726e+06, T = 1007.08, p = 1.36789e+06, CH4 = 0.0545953
ExecutionTime = 0.51 s  ClockTime = 1 s

deltaT = 0.0001
Time = 0.0489

Qdot = 1.15729e+06, T = 1007.17, p = 1.36789e+06, CH4 = 0.0545887
ExecutionTime = 0.51 s  ClockTime = 1 s

deltaT = 0.0001
Time = 0.049

Qdot = 1.17784e+06, T = 1007.26, p = 1.36789e+06, CH4 = 0.0545819
ExecutionTime = 0.51 s  ClockTime = 1 s

deltaT = 0.0001
Time = 0.0491

Qdot = 1.19893e+06, T = 1007.35, p = 1.36789e+06, CH4 = 0.0545751
ExecutionTime = 0.51 s  ClockTime = 1 s

deltaT = 0.0001
Time = 0.0492

Qdot = 1.22058e+06, T = 1007.44, p = 1.36789e+06, CH4 = 0.0545681
ExecutionTime = 0.51 s  ClockTime = 1 s

deltaT = 0.0001
Time = 0.0493

Qdot = 1.24281e+06, T = 1007.53, p = 1.36789e+06, CH4 = 0.054561
ExecutionTime = 0.51 s  ClockTime = 1 s

deltaT = 0.0001
Time = 0.0494

Qdot = 1.26564e+06, T = 1007.62, p = 1.36789e+06, CH4 = 0.0545538
ExecutionTime = 0.51 s  ClockTime = 1 s

deltaT = 0.0001
Time = 0.0495

Qdot = 1.28909e+06, T = 1007.72, p = 1.36789e+06, CH4 = 0.0545465
ExecutionTime = 0.51 s  ClockTime = 1 s

deltaT = 0.0001
Time = 0.0496

Qdot = 1.31319e+06, T = 1007.82, p = 1.36789e+06, CH4 = 0.054539
ExecutionTime = 0.51 s  ClockTime = 1 s

deltaT = 0.0001
Time = 0.0497

Qdot = 1.33796e+06, T = 1007.92, p = 1.36789e+06, CH4 = 0.0545315
ExecutionTime = 0.51 s  ClockTime = 1 s

deltaT = 0.0001
Time = 0.0498

Qdot = 1.36343e+06, T = 1008.02, p = 1.36789e+06, CH4 = 0.0545237
ExecutionTime = 0.52 s  ClockTime = 1 s

deltaT = 0.0001
Time = 0.0499

Qdot = 1.38961e+06, T = 1008.12, p = 1.36789e+06, CH4 = 0.0545159
ExecutionTime = 0.52 s  ClockTime = 1 s

deltaT = 0.0001
Time = 0.05

Qdot = 1.41655e+06, T = 1008.23, p = 1.36789e+06, CH4 = 0.0545079
ExecutionTime = 0.52 s  ClockTime = 1 s

deltaT = 0.0001
Time = 0.0501

Qdot = 1.44427e+06, T = 1008.33, p = 1.36789e+06, CH4 = 0.0544997
ExecutionTime = 0.52 s  ClockTime = 1 s

deltaT = 0.0001
Time = 0.0502

Qdot = 1.4728e+06, T = 1008.44, p = 1.36789e+06, CH4 = 0.0544914
ExecutionTime = 0.52 s  ClockTime = 1 s

deltaT = 0.0001
Time = 0.0503

Qdot = 1.50217e+06, T = 1008.55, p = 1.36789e+06, CH4 = 0.054483
ExecutionTime = 0.52 s  ClockTime = 1 s

deltaT = 0.0001
Time = 0.0504

Qdot = 1.53242e+06, T = 1008.67, p = 1.36789e+06, CH4 = 0.0544744
ExecutionTime = 0.52 s  ClockTime = 1 s

deltaT = 0.0001
Time = 0.0505

Qdot = 1.56359e+06, T = 1008.78, p = 1.36789e+06, CH4 = 0.0544656
ExecutionTime = 0.52 s  ClockTime = 1 s

deltaT = 0.0001
Time = 0.0506

Qdot = 1.5957e+06, T = 1008.9, p = 1.36789e+06, CH4 = 0.0544567
ExecutionTime = 0.52 s  ClockTime = 1 s

deltaT = 0.0001
Time = 0.0507

Qdot = 1.62881e+06, T = 1009.02, p = 1.36789e+06, CH4 = 0.0544475
ExecutionTime = 0.52 s  ClockTime = 1 s

deltaT = 0.0001
Time = 0.0508

Qdot = 1.66295e+06, T = 1009.15, p = 1.36789e+06, CH4 = 0.0544382
ExecutionTime = 0.52 s  ClockTime = 1 s

deltaT = 0.0001
Time = 0.0509

Qdot = 1.69817e+06, T = 1009.27, p = 1.36789e+06, CH4 = 0.0544288
ExecutionTime = 0.52 s  ClockTime = 1 s

deltaT = 0.0001
Time = 0.051

Qdot = 1.73451e+06, T = 1009.4, p = 1.36789e+06, CH4 = 0.0544191
ExecutionTime = 0.53 s  ClockTime = 1 s

deltaT = 0.0001
Time = 0.0511

Qdot = 1.77202e+06, T = 1009.53, p = 1.36789e+06, CH4 = 0.0544092
ExecutionTime = 0.53 s  ClockTime = 1 s

deltaT = 0.0001
Time = 0.0512

Qdot = 1.81076e+06, T = 1009.67, p = 1.36789e+06, CH4 = 0.0543992
ExecutionTime = 0.53 s  ClockTime = 1 s

deltaT = 0.0001
Time = 0.0513

Qdot = 1.85078e+06, T = 1009.81, p = 1.36789e+06, CH4 = 0.0543889
ExecutionTime = 0.53 s  ClockTime = 1 s

deltaT = 0.0001
Time = 0.0514

Qdot = 1.89213e+06, T = 1009.95, p = 1.36789e+06, CH4 = 0.0543784
ExecutionTime = 0.53 s  ClockTime = 1 s

deltaT = 0.0001
Time = 0.0515

Qdot = 1.93488e+06, T = 1010.09, p = 1.36789e+06, CH4 = 0.0543677
ExecutionTime = 0.53 s  ClockTime = 1 s

deltaT = 0.0001
Time = 0.0516

Qdot = 1.9791e+06, T = 1010.24, p = 1.36789e+06, CH4 = 0.0543568
ExecutionTime = 0.53 s  ClockTime = 1 s

deltaT = 0.0001
Time = 0.0517

Qdot = 2.02485e+06, T = 1010.39, p = 1.36789e+06, CH4 = 0.0543456
ExecutionTime = 0.53 s  ClockTime = 1 s

deltaT = 0.0001
Time = 0.0518

Qdot = 2.0722e+06, T = 1010.54, p = 1.36789e+06, CH4 = 0.0543342
ExecutionTime = 0.53 s  ClockTime = 1 s

deltaT = 0.0001
Time = 0.0519

Qdot = 2.12124e+06, T = 1010.7, p = 1.36789e+06, CH4 = 0.0543225
ExecutionTime = 0.53 s  ClockTime = 1 s

deltaT = 0.0001
Time = 0.052

Qdot = 2.17204e+06, T = 1010.86, p = 1.36789e+06, CH4 = 0.0543106
ExecutionTime = 0.54 s  ClockTime = 1 s

deltaT = 0.0001
Time = 0.0521

Qdot = 2.2247e+06, T = 1011.03, p = 1.36789e+06, CH4 = 0.0542984
ExecutionTime = 0.54 s  ClockTime = 1 s

deltaT = 0.0001
Time = 0.0522

Qdot = 2.27929e+06, T = 1011.2, p = 1.36789e+06, CH4 = 0.0542859
ExecutionTime = 0.54 s  ClockTime = 1 s

deltaT = 0.0001
Time = 0.0523

Qdot = 2.33593e+06, T = 1011.37, p = 1.36789e+06, CH4 = 0.0542732
ExecutionTime = 0.54 s  ClockTime = 1 s

deltaT = 0.0001
Time = 0.0524

Qdot = 2.39472e+06, T = 1011.55, p = 1.36789e+06, CH4 = 0.0542601
ExecutionTime = 0.54 s  ClockTime = 1 s

deltaT = 0.0001
Time = 0.0525

Qdot = 2.45577e+06, T = 1011.73, p = 1.36789e+06, CH4 = 0.0542467
ExecutionTime = 0.54 s  ClockTime = 1 s

deltaT = 0.0001
Time = 0.0526

Qdot = 2.5192e+06, T = 1011.92, p = 1.36789e+06, CH4 = 0.054233
ExecutionTime = 0.54 s  ClockTime = 1 s

deltaT = 0.0001
Time = 0.0527

Qdot = 2.58514e+06, T = 1012.11, p = 1.36789e+06, CH4 = 0.054219
ExecutionTime = 0.54 s  ClockTime = 1 s

deltaT = 0.0001
Time = 0.0528

Qdot = 2.65372e+06, T = 1012.31, p = 1.36789e+06, CH4 = 0.0542046
ExecutionTime = 0.54 s  ClockTime = 1 s

deltaT = 0.0001
Time = 0.0529

Qdot = 2.72508e+06, T = 1012.51, p = 1.36789e+06, CH4 = 0.0541899
ExecutionTime = 0.54 s  ClockTime = 1 s

deltaT = 0.0001
Time = 0.053

Qdot = 2.7994e+06, T = 1012.72, p = 1.36789e+06, CH4 = 0.0541748
ExecutionTime = 0.55 s  ClockTime = 1 s

deltaT = 0.0001
Time = 0.0531

Qdot = 2.87682e+06, T = 1012.93, p = 1.36789e+06, CH4 = 0.0541593
ExecutionTime = 0.55 s  ClockTime = 1 s

deltaT = 5e-05
Time = 0.05315

Qdot = 2.93693e+06, T = 1013.04, p = 1.36789e+06, CH4 = 0.0541513
ExecutionTime = 0.55 s  ClockTime = 1 s

deltaT = 9.92754e-05
Time = 0.0532493

Qdot = 2.99889e+06, T = 1013.26, p = 1.36789e+06, CH4 = 0.0541353
ExecutionTime = 0.55 s  ClockTime = 1 s

deltaT = 4.96377e-05
Time = 0.0532989

Qdot = 3.06246e+06, T = 1013.37, p = 1.36789e+06, CH4 = 0.0541272
ExecutionTime = 0.55 s  ClockTime = 1 s

deltaT = 9.85454e-05
Time = 0.0533975

Qdot = 3.128e+06, T = 1013.6, p = 1.36789e+06, CH4 = 0.0541107
ExecutionTime = 0.55 s  ClockTime = 1 s

deltaT = 4.92727e-05
Time = 0.0534467

Qdot = 3.19529e+06, T = 1013.72, p = 1.36789e+06, CH4 = 0.0541022
ExecutionTime = 0.55 s  ClockTime = 1 s

deltaT = 9.781e-05
Time = 0.0535445

Qdot = 3.2647e+06, T = 1013.96, p = 1.36789e+06, CH4 = 0.0540852
ExecutionTime = 0.56 s  ClockTime = 1 s

deltaT = 4.8905e-05
Time = 0.0535934

Qdot = 3.33599e+06, T = 1014.08, p = 1.36789e+06, CH4 = 0.0540765
ExecutionTime = 0.56 s  ClockTime = 1 s

deltaT = 9.7069e-05
Time = 0.0536905

Qdot = 3.40956e+06, T = 1014.32, p = 1.36789e+06, CH4 = 0.0540588
ExecutionTime = 0.56 s  ClockTime = 1 s

deltaT = 4.85345e-05
Time = 0.053739

Qdot = 3.48515e+06, T = 1014.45, p = 1.36789e+06, CH4 = 0.0540498
ExecutionTime = 0.56 s  ClockTime = 1 s

deltaT = 9.63223e-05
Time = 0.0538354

Qdot = 3.56321e+06, T = 1014.7, p = 1.36789e+06, CH4 = 0.0540316
ExecutionTime = 0.56 s  ClockTime = 1 s

deltaT = 4.81612e-05
Time = 0.0538835

Qdot = 3.64344e+06, T = 1014.83, p = 1.36789e+06, CH4 = 0.0540223
ExecutionTime = 0.56 s  ClockTime = 1 s

deltaT = 9.55698e-05
Time = 0.0539791

Qdot = 3.72633e+06, T = 1015.1, p = 1.36789e+06, CH4 = 0.0540034
ExecutionTime = 0.56 s  ClockTime = 1 s

deltaT = 4.77849e-05
Time = 0.0540269

Qdot = 3.81158e+06, T = 1015.23, p = 1.36789e+06, CH4 = 0.0539938
ExecutionTime = 0.57 s  ClockTime = 1 s

deltaT = 9.48113e-05
Time = 0.0541217

Qdot = 3.8997e+06, T = 1015.51, p = 1.36789e+06, CH4 = 0.0539743
ExecutionTime = 0.57 s  ClockTime = 1 s

deltaT = 4.74057e-05
Time = 0.0541691

Qdot = 3.99037e+06, T = 1015.65, p = 1.36789e+06, CH4 = 0.0539643
ExecutionTime = 0.57 s  ClockTime = 1 s

deltaT = 9.40467e-05
Time = 0.0542632

Qdot = 4.08415e+06, T = 1015.93, p = 1.36789e+06, CH4 = 0.0539441
ExecutionTime = 0.57 s  ClockTime = 1 s

deltaT = 4.70233e-05
Time = 0.0543102

Qdot = 4.18068e+06, T = 1016.08, p = 1.36789e+06, CH4 = 0.0539337
ExecutionTime = 0.57 s  ClockTime = 1 s

deltaT = 9.32758e-05
Time = 0.0544035

Qdot = 4.28058e+06, T = 1016.37, p = 1.36789e+06, CH4 = 0.0539128
ExecutionTime = 0.57 s  ClockTime = 1 s

deltaT = 4.66379e-05
Time = 0.0544501

Qdot = 4.38347e+06, T = 1016.52, p = 1.36789e+06, CH4 = 0.0539021
ExecutionTime = 0.57 s  ClockTime = 1 s

deltaT = 9.24985e-05
Time = 0.0545426

Qdot = 4.49003e+06, T = 1016.83, p = 1.36789e+06, CH4 = 0.0538804
ExecutionTime = 0.58 s  ClockTime = 1 s

deltaT = 4.62493e-05
Time = 0.0545888

Qdot = 4.59983e+06, T = 1016.99, p = 1.36789e+06, CH4 = 0.0538692
ExecutionTime = 0.58 s  ClockTime = 1 s

deltaT = 9.17146e-05
Time = 0.0546806

Qdot = 4.7136e+06, T = 1017.31, p = 1.36789e+06, CH4 = 0.0538467
ExecutionTime = 0.58 s  ClockTime = 1 s

deltaT = 4.58573e-05
Time = 0.0547264

Qdot = 4.83091e+06, T = 1017.48, p = 1.36789e+06, CH4 = 0.0538352
ExecutionTime = 0.58 s  ClockTime = 1 s

deltaT = 9.0924e-05
Time = 0.0548173

Qdot = 4.95255e+06, T = 1017.81, p = 1.36789e+06, CH4 = 0.0538118
ExecutionTime = 0.58 s  ClockTime = 1 s

deltaT = 4.5462e-05
Time = 0.0548628

Qdot = 5.07804e+06, T = 1017.98, p = 1.36789e+06, CH4 = 0.0537998
ExecutionTime = 0.58 s  ClockTime = 1 s

deltaT = 9.01264e-05
Time = 0.0549529

Qdot = 5.20825e+06, T = 1018.33, p = 1.36789e+06, CH4 = 0.0537755
ExecutionTime = 0.58 s  ClockTime = 1 s

deltaT = 4.50632e-05
Time = 0.054998

Qdot = 5.34266e+06, T = 1018.51, p = 1.36789e+06, CH4 = 0.053763
ExecutionTime = 0.58 s  ClockTime = 1 s

deltaT = 8.93217e-05
Time = 0.0550873

Qdot = 5.48223e+06, T = 1018.87, p = 1.36789e+06, CH4 = 0.0537378
ExecutionTime = 0.59 s  ClockTime = 1 s

deltaT = 4.46609e-05
Time = 0.055132

Qdot = 5.62639e+06, T = 1019.06, p = 1.36789e+06, CH4 = 0.0537248
ExecutionTime = 0.59 s  ClockTime = 1 s

deltaT = 8.85097e-05
Time = 0.0552205

Qdot = 5.7762e+06, T = 1019.44, p = 1.36789e+06, CH4 = 0.0536985
ExecutionTime = 0.59 s  ClockTime = 1 s

deltaT = 4.42549e-05
Time = 0.0552647

Qdot = 5.93104e+06, T = 1019.63, p = 1.36789e+06, CH4 = 0.0536851
ExecutionTime = 0.59 s  ClockTime = 1 s

deltaT = 8.76902e-05
Time = 0.0553524

Qdot = 6.09207e+06, T = 1020.03, p = 1.36789e+06, CH4 = 0.0536577
ExecutionTime = 0.59 s  ClockTime = 1 s

deltaT = 4.38451e-05
Time = 0.0553963

[...]
Time = 0.0596543

Qdot = -2.29485e+07, T = 2670.92, p = 1.36789e+06, CH4 = 4.46752e-15
ExecutionTime = 2.68 s  ClockTime = 3 s

deltaT = 1.81972e-05
Time = 0.0596724

Qdot = -2.26406e+07, T = 2670.66, p = 1.36789e+06, CH4 = 4.48673e-15
ExecutionTime = 2.68 s  ClockTime = 3 s

deltaT = 9.09862e-06
Time = 0.0596815

Qdot = -2.23346e+07, T = 2670.53, p = 1.36789e+06, CH4 = 4.49623e-15
ExecutionTime = 2.68 s  ClockTime = 3 s

deltaT = 1.76918e-05
Time = 0.0596992

Qdot = -2.20334e+07, T = 2670.28, p = 1.36789e+06, CH4 = 4.51452e-15
ExecutionTime = 2.68 s  ClockTime = 3 s

deltaT = 8.84588e-06
Time = 0.0597081

Qdot = -2.17348e+07, T = 2670.15, p = 1.36789e+06, CH4 = 4.52356e-15
ExecutionTime = 2.68 s  ClockTime = 3 s

deltaT = 1.71714e-05
Time = 0.0597253

Qdot = -2.14417e+07, T = 2669.92, p = 1.36789e+06, CH4 = 4.54093e-15
ExecutionTime = 2.68 s  ClockTime = 3 s

deltaT = 8.58571e-06
Time = 0.0597338

Qdot = -2.11517e+07, T = 2669.8, p = 1.36789e+06, CH4 = 4.54953e-15
ExecutionTime = 2.68 s  ClockTime = 3 s

deltaT = 1.66348e-05
Time = 0.0597505

Qdot = -2.08678e+07, T = 2669.58, p = 1.36789e+06, CH4 = 4.56599e-15
ExecutionTime = 2.69 s  ClockTime = 3 s

deltaT = 3.11903e-05
Time = 0.0597817

Qdot = -2.03311e+07, T = 2669.17, p = 1.36789e+06, CH4 = 4.59623e-15
ExecutionTime = 2.69 s  ClockTime = 3 s

deltaT = 1.55951e-05
Time = 0.0597973

Qdot = -1.98083e+07, T = 2668.97, p = 1.36789e+06, CH4 = 4.61103e-15
ExecutionTime = 2.69 s  ClockTime = 3 s

deltaT = 2.89624e-05
Time = 0.0598262

Qdot = -1.93138e+07, T = 2668.61, p = 1.36789e+06, CH4 = 4.63795e-15
ExecutionTime = 2.69 s  ClockTime = 3 s

deltaT = 1.44812e-05
Time = 0.0598407

Qdot = -1.8835e+07, T = 2668.44, p = 1.36789e+06, CH4 = 4.65113e-15
ExecutionTime = 2.69 s  ClockTime = 3 s

deltaT = 2.65489e-05
Time = 0.0598673

Qdot = -1.83872e+07, T = 2668.13, p = 1.36789e+06, CH4 = 4.67482e-15
ExecutionTime = 2.69 s  ClockTime = 3 s

deltaT = 1.32744e-05
Time = 0.0598805

Qdot = -1.79562e+07, T = 2667.97, p = 1.36789e+06, CH4 = 4.68643e-15
ExecutionTime = 2.69 s  ClockTime = 3 s

deltaT = 2.3894e-05
Time = 0.0599044

Qdot = -1.75585e+07, T = 2667.7, p = 1.36789e+06, CH4 = 4.70694e-15
ExecutionTime = 2.69 s  ClockTime = 3 s

deltaT = 1.1947e-05
Time = 0.0599164

Qdot = -1.71785e+07, T = 2667.57, p = 1.36789e+06, CH4 = 4.71701e-15
ExecutionTime = 2.7 s  ClockTime = 3 s

deltaT = 2.09072e-05
Time = 0.0599373

Qdot = -1.68341e+07, T = 2667.35, p = 1.36789e+06, CH4 = 4.73432e-15
ExecutionTime = 2.7 s  ClockTime = 3 s

deltaT = 3.13608e-05
Time = 0.0599686

Qdot = -1.62941e+07, T = 2667.02, p = 1.36789e+06, CH4 = 4.75957e-15
ExecutionTime = 2.7 s  ClockTime = 3 s

deltaT = 1.56804e-05
Time = 0.0599843

Qdot = -1.58157e+07, T = 2666.86, p = 1.36789e+06, CH4 = 4.77188e-15
ExecutionTime = 2.71 s  ClockTime = 3 s

deltaT = 1.56804e-05
Time = 0.06

Qdot = -1.55017e+07, T = 2666.7, p = 1.36789e+06, CH4 = 4.78397e-15
ExecutionTime = 2.71 s  ClockTime = 3 s

deltaT = 3.1348e-05
Time = 0.0600313

Qdot = -1.50386e+07, T = 2666.4, p = 1.36789e+06, CH4 = 4.80752e-15
ExecutionTime = 2.71 s  ClockTime = 3 s

deltaT = 1.5674e-05
Time = 0.060047

Qdot = -1.45834e+07, T = 2666.25, p = 1.36789e+06, CH4 = 4.81898e-15
ExecutionTime = 2.71 s  ClockTime = 3 s

deltaT = 3.12987e-05
Time = 0.0600783

Qdot = -1.41388e+07, T = 2665.97, p = 1.36789e+06, CH4 = 4.84124e-15
ExecutionTime = 2.71 s  ClockTime = 3 s

deltaT = 1.56493e-05
Time = 0.060094

Qdot = -1.37028e+07, T = 2665.83, p = 1.36789e+06, CH4 = 4.85207e-15
ExecutionTime = 2.71 s  ClockTime = 3 s

deltaT = 3.12493e-05
Time = 0.0601252

Qdot = -1.32777e+07, T = 2665.56, p = 1.36789e+06, CH4 = 4.8731e-15
ExecutionTime = 2.71 s  ClockTime = 3 s

deltaT = 1.56247e-05
Time = 0.0601408

Qdot = -1.28613e+07, T = 2665.44, p = 1.36789e+06, CH4 = 4.88331e-15
ExecutionTime = 2.71 s  ClockTime = 3 s

deltaT = 3.11999e-05
Time = 0.060172

Qdot = -1.2456e+07, T = 2665.19, p = 1.36789e+06, CH4 = 4.90314e-15
ExecutionTime = 2.71 s  ClockTime = 3 s

deltaT = 1.55999e-05
Time = 0.0601876

Qdot = -1.20596e+07, T = 2665.07, p = 1.36789e+06, CH4 = 4.91276e-15
ExecutionTime = 2.71 s  ClockTime = 3 s

deltaT = 3.11503e-05
Time = 0.0602188

Qdot = -1.16742e+07, T = 2664.83, p = 1.36789e+06, CH4 = 4.93143e-15
ExecutionTime = 2.72 s  ClockTime = 3 s

deltaT = 6.23007e-05
Time = 0.0602811

Qdot = -1.0934e+07, T = 2664.39, p = 1.36789e+06, CH4 = 4.96659e-15
ExecutionTime = 2.72 s  ClockTime = 3 s

deltaT = 3.11503e-05
Time = 0.0603122

Qdot = -1.02278e+07, T = 2664.19, p = 1.36789e+06, CH4 = 4.98313e-15
ExecutionTime = 2.72 s  ClockTime = 3 s

deltaT = 6.2101e-05
Time = 0.0603743

Qdot = -9.56479e+06, T = 2663.81, p = 1.36789e+06, CH4 = 5.01412e-15
ExecutionTime = 2.72 s  ClockTime = 3 s

deltaT = 3.10505e-05
Time = 0.0604054

Qdot = -8.93501e+06, T = 2663.63, p = 1.36789e+06, CH4 = 5.02867e-15
ExecutionTime = 2.72 s  ClockTime = 3 s

deltaT = 6.19007e-05
Time = 0.0604673

Qdot = -8.34599e+06, T = 2663.3, p = 1.36789e+06, CH4 = 5.05587e-15
ExecutionTime = 2.72 s  ClockTime = 3 s

deltaT = 3.09503e-05
Time = 0.0604982

Qdot = -7.78798e+06, T = 2663.14, p = 1.36789e+06, CH4 = 5.06862e-15
ExecutionTime = 2.72 s  ClockTime = 3 s

deltaT = 6.16997e-05
Time = 0.0605599

Qdot = -7.26765e+06, T = 2662.86, p = 1.36789e+06, CH4 = 5.09243e-15
ExecutionTime = 2.73 s  ClockTime = 3 s

deltaT = 3.08498e-05
Time = 0.0605908

Qdot = -6.77579e+06, T = 2662.72, p = 1.36789e+06, CH4 = 5.10357e-15
ExecutionTime = 2.73 s  ClockTime = 3 s

deltaT = 6.14981e-05
Time = 0.0606523

Qdot = -6.31826e+06, T = 2662.47, p = 1.36789e+06, CH4 = 5.12435e-15
ExecutionTime = 2.73 s  ClockTime = 3 s

deltaT = 3.0749e-05
Time = 0.060683

Qdot = -5.88654e+06, T = 2662.36, p = 1.36789e+06, CH4 = 5.13406e-15
ExecutionTime = 2.73 s  ClockTime = 3 s

deltaT = 6.12958e-05
Time = 0.0607443

Qdot = -5.48569e+06, T = 2662.14, p = 1.36789e+06, CH4 = 5.15215e-15
ExecutionTime = 2.73 s  ClockTime = 3 s

deltaT = 3.06479e-05
Time = 0.060775

Qdot = -5.10802e+06, T = 2662.04, p = 1.36789e+06, CH4 = 5.1606e-15
ExecutionTime = 2.73 s  ClockTime = 3 s

deltaT = 6.10928e-05
Time = 0.0608361

Qdot = -4.75792e+06, T = 2661.85, p = 1.36789e+06, CH4 = 5.17633e-15
ExecutionTime = 2.73 s  ClockTime = 3 s

deltaT = 3.05464e-05
Time = 0.0608666

Qdot = -4.42844e+06, T = 2661.77, p = 1.36789e+06, CH4 = 5.18366e-15
ExecutionTime = 2.73 s  ClockTime = 3 s

deltaT = 6.08892e-05
Time = 0.0609275

Qdot = -4.12337e+06, T = 2661.6, p = 1.36789e+06, CH4 = 5.19731e-15
ExecutionTime = 2.74 s  ClockTime = 3 s

deltaT = 9.96976e-05
Time = 0.0610272

Qdot = -3.63589e+06, T = 2661.37, p = 1.36789e+06, CH4 = 5.21708e-15
ExecutionTime = 2.74 s  ClockTime = 3 s

deltaT = 4.98488e-05
Time = 0.0610771

Qdot = -3.22749e+06, T = 2661.27, p = 1.36789e+06, CH4 = 5.22588e-15
ExecutionTime = 2.74 s  ClockTime = 3 s

deltaT = 9.91437e-05
Time = 0.0611762

Qdot = -2.8689e+06, T = 2661.09, p = 1.36789e+06, CH4 = 5.24148e-15
ExecutionTime = 2.74 s  ClockTime = 3 s

deltaT = 4.95719e-05
Time = 0.0612258

Qdot = -2.54567e+06, T = 2661, p = 1.36789e+06, CH4 = 5.24841e-15
ExecutionTime = 2.74 s  ClockTime = 3 s

deltaT = 9.85868e-05
Time = 0.0613244

Qdot = -2.2623e+06, T = 2660.86, p = 1.36789e+06, CH4 = 5.2607e-15
ExecutionTime = 2.74 s  ClockTime = 3 s

deltaT = 4.92934e-05
Time = 0.0613737

Qdot = -2.00712e+06, T = 2660.8, p = 1.36789e+06, CH4 = 5.26616e-15
ExecutionTime = 2.74 s  ClockTime = 3 s

deltaT = 9.80266e-05
Time = 0.0614717

Qdot = -1.78366e+06, T = 2660.69, p = 1.36789e+06, CH4 = 5.27582e-15
ExecutionTime = 2.74 s  ClockTime = 3 s

deltaT = 4.90133e-05
Time = 0.0615207

Qdot = -1.58256e+06, T = 2660.64, p = 1.36789e+06, CH4 = 5.28012e-15
ExecutionTime = 2.74 s  ClockTime = 3 s

deltaT = 9.74632e-05
Time = 0.0616182

Qdot = -1.40653e+06, T = 2660.55, p = 1.36789e+06, CH4 = 5.28771e-15
ExecutionTime = 2.75 s  ClockTime = 3 s

deltaT = 9.97838e-05
Time = 0.0617179

Qdot = -1.19848e+06, T = 2660.47, p = 1.36789e+06, CH4 = 5.29435e-15
ExecutionTime = 2.75 s  ClockTime = 3 s

deltaT = 9.97838e-05
Time = 0.0618177

Qdot = -1.01887e+06, T = 2660.41, p = 1.36789e+06, CH4 = 5.3e-15
ExecutionTime = 2.75 s  ClockTime = 3 s

deltaT = 9.97838e-05
Time = 0.0619175

Qdot = -865924, T = 2660.35, p = 1.36789e+06, CH4 = 5.30481e-15
ExecutionTime = 2.75 s  ClockTime = 3 s

deltaT = 9.97838e-05
Time = 0.0620173

Qdot = -735748, T = 2660.3, p = 1.36789e+06, CH4 = 5.3089e-15
ExecutionTime = 2.75 s  ClockTime = 3 s

deltaT = 9.97838e-05
Time = 0.0621171

Qdot = -625006, T = 2660.26, p = 1.36789e+06, CH4 = 5.31237e-15
ExecutionTime = 2.75 s  ClockTime = 3 s

deltaT = 9.97838e-05
Time = 0.0622169

Qdot = -530837, T = 2660.23, p = 1.36789e+06, CH4 = 5.31533e-15
ExecutionTime = 2.75 s  ClockTime = 3 s

deltaT = 9.97838e-05
Time = 0.0623166

Qdot = -450786, T = 2660.2, p = 1.36789e+06, CH4 = 5.31784e-15
ExecutionTime = 2.75 s  ClockTime = 3 s

deltaT = 9.97838e-05
Time = 0.0624164

Qdot = -382756, T = 2660.17, p = 1.36789e+06, CH4 = 5.31997e-15
ExecutionTime = 2.75 s  ClockTime = 3 s

deltaT = 9.97838e-05
Time = 0.0625162

Qdot = -324958, T = 2660.15, p = 1.36789e+06, CH4 = 5.32178e-15
ExecutionTime = 2.75 s  ClockTime = 3 s

deltaT = 9.97838e-05
Time = 0.062616

Qdot = -275861, T = 2660.14, p = 1.36789e+06, CH4 = 5.32332e-15
ExecutionTime = 2.76 s  ClockTime = 3 s

deltaT = 9.97838e-05
Time = 0.0627158

Qdot = -234163, T = 2660.12, p = 1.36789e+06, CH4 = 5.32462e-15
ExecutionTime = 2.76 s  ClockTime = 3 s

deltaT = 9.97838e-05
Time = 0.0628156

Qdot = -198755, T = 2660.11, p = 1.36789e+06, CH4 = 5.32573e-15
ExecutionTime = 2.76 s  ClockTime = 3 s

deltaT = 9.97838e-05
Time = 0.0629154

Qdot = -168691, T = 2660.1, p = 1.36789e+06, CH4 = 5.32667e-15
ExecutionTime = 2.76 s  ClockTime = 3 s

deltaT = 9.97838e-05
Time = 0.0630151

Qdot = -143167, T = 2660.09, p = 1.36789e+06, CH4 = 5.32747e-15
ExecutionTime = 2.76 s  ClockTime = 3 s

deltaT = 9.97838e-05
Time = 0.0631149

Qdot = -121501, T = 2660.08, p = 1.36789e+06, CH4 = 5.32815e-15
ExecutionTime = 2.76 s  ClockTime = 3 s

deltaT = 9.97838e-05
Time = 0.0632147

Qdot = -103109, T = 2660.07, p = 1.36789e+06, CH4 = 5.32873e-15
ExecutionTime = 2.76 s  ClockTime = 3 s

deltaT = 9.97838e-05
Time = 0.0633145

Qdot = -87499.3, T = 2660.07, p = 1.36789e+06, CH4 = 5.32922e-15
ExecutionTime = 2.76 s  ClockTime = 3 s

deltaT = 9.97838e-05
Time = 0.0634143

Qdot = -74250.7, T = 2660.06, p = 1.36789e+06, CH4 = 5.32963e-15
ExecutionTime = 2.76 s  ClockTime = 3 s

deltaT = 9.97838e-05
Time = 0.0635141

Qdot = -62936.8, T = 2660.06, p = 1.36789e+06, CH4 = 5.32998e-15
ExecutionTime = 2.76 s  ClockTime = 3 s

deltaT = 9.97838e-05
Time = 0.0636138

Qdot = -53413.7, T = 2660.06, p = 1.36789e+06, CH4 = 5.33028e-15
ExecutionTime = 2.76 s  ClockTime = 3 s

deltaT = 9.97838e-05
Time = 0.0637136

Qdot = -45332.9, T = 2660.05, p = 1.36789e+06, CH4 = 5.33053e-15
ExecutionTime = 2.77 s  ClockTime = 3 s

deltaT = 9.97838e-05
Time = 0.0638134

Qdot = -38474.1, T = 2660.05, p = 1.36789e+06, CH4 = 5.33075e-15
ExecutionTime = 2.77 s  ClockTime = 3 s

deltaT = 9.97838e-05
Time = 0.0639132

Qdot = -32652.6, T = 2660.05, p = 1.36789e+06, CH4 = 5.33093e-15
ExecutionTime = 2.77 s  ClockTime = 3 s

deltaT = 9.97838e-05
Time = 0.064013

Qdot = -27711.8, T = 2660.05, p = 1.36789e+06, CH4 = 5.33108e-15
ExecutionTime = 2.77 s  ClockTime = 3 s

deltaT = 9.97838e-05
Time = 0.0641128

Qdot = -23518.3, T = 2660.05, p = 1.36789e+06, CH4 = 5.33122e-15
ExecutionTime = 2.77 s  ClockTime = 3 s

deltaT = 9.97838e-05
Time = 0.0642125

Qdot = -19959.3, T = 2660.04, p = 1.36789e+06, CH4 = 5.33133e-15
ExecutionTime = 2.77 s  ClockTime = 3 s

deltaT = 9.97838e-05
Time = 0.0643123

Qdot = -16938.8, T = 2660.04, p = 1.36789e+06, CH4 = 5.33142e-15
ExecutionTime = 2.77 s  ClockTime = 3 s

deltaT = 9.97838e-05
Time = 0.0644121

Qdot = -14375.4, T = 2660.04, p = 1.36789e+06, CH4 = 5.3315e-15
ExecutionTime = 2.77 s  ClockTime = 3 s

deltaT = 9.97838e-05
Time = 0.0645119

Qdot = -12199.8, T = 2660.04, p = 1.36789e+06, CH4 = 5.33157e-15
ExecutionTime = 2.77 s  ClockTime = 3 s

deltaT = 9.97838e-05
Time = 0.0646117

Qdot = -10353.4, T = 2660.04, p = 1.36789e+06, CH4 = 5.33163e-15
ExecutionTime = 2.77 s  ClockTime = 3 s

deltaT = 9.97838e-05
Time = 0.0647115

Qdot = -8786.45, T = 2660.04, p = 1.36789e+06, CH4 = 5.33168e-15
ExecutionTime = 2.77 s  ClockTime = 3 s

deltaT = 9.97838e-05
Time = 0.0648112

Qdot = -7456.64, T = 2660.04, p = 1.36789e+06, CH4 = 5.33172e-15
ExecutionTime = 2.78 s  ClockTime = 3 s

deltaT = 9.97838e-05
Time = 0.064911

Qdot = -6328.07, T = 2660.04, p = 1.36789e+06, CH4 = 5.33175e-15
ExecutionTime = 2.78 s  ClockTime = 3 s

deltaT = 9.97838e-05
Time = 0.0650108

Qdot = -5370.3, T = 2660.04, p = 1.36789e+06, CH4 = 5.33178e-15
ExecutionTime = 2.78 s  ClockTime = 3 s

deltaT = 9.97838e-05
Time = 0.0651106

Qdot = -4557.49, T = 2660.04, p = 1.36789e+06, CH4 = 5.33181e-15
ExecutionTime = 2.78 s  ClockTime = 3 s

deltaT = 9.97838e-05
Time = 0.0652104

Qdot = -3867.69, T = 2660.04, p = 1.36789e+06, CH4 = 5.33183e-15
ExecutionTime = 2.78 s  ClockTime = 3 s

deltaT = 9.97838e-05
Time = 0.0653102

Qdot = -3282.3, T = 2660.04, p = 1.36789e+06, CH4 = 5.33185e-15
ExecutionTime = 2.78 s  ClockTime = 3 s

deltaT = 9.97838e-05
Time = 0.0654099

Qdot = -2785.5, T = 2660.04, p = 1.36789e+06, CH4 = 5.33187e-15
ExecutionTime = 2.78 s  ClockTime = 3 s

deltaT = 9.97838e-05
Time = 0.0655097

Qdot = -2363.9, T = 2660.04, p = 1.36789e+06, CH4 = 5.33188e-15
ExecutionTime = 2.78 s  ClockTime = 3 s

deltaT = 9.97838e-05
Time = 0.0656095

Qdot = -2006.1, T = 2660.04, p = 1.36789e+06, CH4 = 5.33189e-15
ExecutionTime = 2.78 s  ClockTime = 3 s

deltaT = 9.97838e-05
Time = 0.0657093

Qdot = -1702.46, T = 2660.04, p = 1.36789e+06, CH4 = 5.3319e-15
ExecutionTime = 2.78 s  ClockTime = 3 s

deltaT = 9.97838e-05
Time = 0.0658091

Qdot = -1444.78, T = 2660.04, p = 1.36789e+06, CH4 = 5.33191e-15
ExecutionTime = 2.78 s  ClockTime = 3 s

deltaT = 9.97838e-05
Time = 0.0659089

Qdot = -1226.1, T = 2660.04, p = 1.36789e+06, CH4 = 5.33191e-15
ExecutionTime = 2.78 s  ClockTime = 3 s

deltaT = 9.97838e-05
Time = 0.0660086

Qdot = -1040.52, T = 2660.04, p = 1.36789e+06, CH4 = 5.33192e-15
ExecutionTime = 2.79 s  ClockTime = 3 s

deltaT = 9.97838e-05
Time = 0.0661084

Qdot = -883.027, T = 2660.04, p = 1.36789e+06, CH4 = 5.33192e-15
ExecutionTime = 2.79 s  ClockTime = 3 s

deltaT = 9.97838e-05
Time = 0.0662082

Qdot = -749.373, T = 2660.04, p = 1.36789e+06, CH4 = 5.33193e-15
ExecutionTime = 2.79 s  ClockTime = 3 s

deltaT = 9.97838e-05
Time = 0.066308

Qdot = -635.948, T = 2660.04, p = 1.36789e+06, CH4 = 5.33193e-15
ExecutionTime = 2.79 s  ClockTime = 3 s

deltaT = 9.97838e-05
Time = 0.0664078

Qdot = -539.691, T = 2660.04, p = 1.36789e+06, CH4 = 5.33194e-15
ExecutionTime = 2.79 s  ClockTime = 3 s

deltaT = 9.97838e-05
Time = 0.0665076

Qdot = -458.003, T = 2660.04, p = 1.36789e+06, CH4 = 5.33194e-15
ExecutionTime = 2.79 s  ClockTime = 3 s

deltaT = 9.97838e-05
Time = 0.0666074

Qdot = -388.68, T = 2660.04, p = 1.36789e+06, CH4 = 5.33194e-15
ExecutionTime = 2.79 s  ClockTime = 3 s

deltaT = 9.97838e-05
Time = 0.0667071

Qdot = -329.849, T = 2660.04, p = 1.36789e+06, CH4 = 5.33194e-15
ExecutionTime = 2.79 s  ClockTime = 3 s

deltaT = 9.97838e-05
Time = 0.0668069

Qdot = -279.923, T = 2660.04, p = 1.36789e+06, CH4 = 5.33194e-15
ExecutionTime = 2.79 s  ClockTime = 3 s

deltaT = 9.97838e-05
Time = 0.0669067

Qdot = -237.554, T = 2660.04, p = 1.36789e+06, CH4 = 5.33194e-15
ExecutionTime = 2.79 s  ClockTime = 3 s

deltaT = 9.97838e-05
Time = 0.0670065

Qdot = -201.598, T = 2660.04, p = 1.36789e+06, CH4 = 5.33195e-15
ExecutionTime = 2.79 s  ClockTime = 3 s

deltaT = 9.97838e-05
Time = 0.0671063

Qdot = -171.084, T = 2660.04, p = 1.36789e+06, CH4 = 5.33195e-15
ExecutionTime = 2.79 s  ClockTime = 3 s

deltaT = 9.97838e-05
Time = 0.0672061

Qdot = -145.188, T = 2660.04, p = 1.36789e+06, CH4 = 5.33195e-15
ExecutionTime = 2.8 s  ClockTime = 3 s

deltaT = 9.97838e-05
Time = 0.0673058

Qdot = -123.213, T = 2660.04, p = 1.36789e+06, CH4 = 5.33195e-15
ExecutionTime = 2.8 s  ClockTime = 3 s

deltaT = 9.97838e-05
Time = 0.0674056

Qdot = -104.563, T = 2660.04, p = 1.36789e+06, CH4 = 5.33195e-15
ExecutionTime = 2.8 s  ClockTime = 3 s

deltaT = 9.97838e-05
Time = 0.0675054

Qdot = -88.7364, T = 2660.04, p = 1.36789e+06, CH4 = 5.33195e-15
ExecutionTime = 2.8 s  ClockTime = 3 s

deltaT = 9.97838e-05
Time = 0.0676052

Qdot = -75.3052, T = 2660.04, p = 1.36789e+06, CH4 = 5.33195e-15
ExecutionTime = 2.8 s  ClockTime = 3 s

deltaT = 9.97838e-05
Time = 0.067705

Qdot = -63.907, T = 2660.04, p = 1.36789e+06, CH4 = 5.33195e-15
ExecutionTime = 2.8 s  ClockTime = 3 s

deltaT = 9.97838e-05
Time = 0.0678048

Qdot = -54.234, T = 2660.04, p = 1.36789e+06, CH4 = 5.33195e-15
ExecutionTime = 2.8 s  ClockTime = 3 s

deltaT = 9.97838e-05
Time = 0.0679045

Qdot = -46.0251, T = 2660.04, p = 1.36789e+06, CH4 = 5.33195e-15
ExecutionTime = 2.8 s  ClockTime = 3 s

deltaT = 9.97838e-05
Time = 0.0680043

Qdot = -39.0587, T = 2660.04, p = 1.36789e+06, CH4 = 5.33195e-15
ExecutionTime = 2.8 s  ClockTime = 3 s

deltaT = 9.97838e-05
Time = 0.0681041

Qdot = -33.1468, T = 2660.04, p = 1.36789e+06, CH4 = 5.33195e-15
ExecutionTime = 2.8 s  ClockTime = 3 s

deltaT = 9.97838e-05
Time = 0.0682039

Qdot = -28.1297, T = 2660.04, p = 1.36789e+06, CH4 = 5.33195e-15
ExecutionTime = 2.8 s  ClockTime = 3 s

deltaT = 9.97838e-05
Time = 0.0683037

Qdot = -23.8719, T = 2660.04, p = 1.36789e+06, CH4 = 5.33195e-15
ExecutionTime = 2.8 s  ClockTime = 3 s

deltaT = 9.97838e-05
Time = 0.0684035

Qdot = -20.2586, T = 2660.04, p = 1.36789e+06, CH4 = 5.33195e-15
ExecutionTime = 2.81 s  ClockTime = 3 s

deltaT = 9.97838e-05
Time = 0.0685032

Qdot = -17.1923, T = 2660.04, p = 1.36789e+06, CH4 = 5.33195e-15
ExecutionTime = 2.81 s  ClockTime = 3 s

deltaT = 9.97838e-05
Time = 0.068603

Qdot = -14.59, T = 2660.04, p = 1.36789e+06, CH4 = 5.33195e-15
ExecutionTime = 2.81 s  ClockTime = 3 s

deltaT = 9.97838e-05
Time = 0.0687028

Qdot = -12.3817, T = 2660.04, p = 1.36789e+06, CH4 = 5.33195e-15
ExecutionTime = 2.81 s  ClockTime = 3 s

deltaT = 9.97838e-05
Time = 0.0688026

Qdot = -10.5076, T = 2660.04, p = 1.36789e+06, CH4 = 5.33195e-15
ExecutionTime = 2.81 s  ClockTime = 3 s

deltaT = 9.97838e-05
Time = 0.0689024

Qdot = -8.91715, T = 2660.04, p = 1.36789e+06, CH4 = 5.33195e-15
ExecutionTime = 2.81 s  ClockTime = 3 s

deltaT = 9.97838e-05
Time = 0.0690022

Qdot = -7.56745, T = 2660.04, p = 1.36789e+06, CH4 = 5.33195e-15
ExecutionTime = 2.81 s  ClockTime = 3 s

deltaT = 9.97838e-05
Time = 0.0691019

Qdot = -6.42204, T = 2660.04, p = 1.36789e+06, CH4 = 5.33195e-15
ExecutionTime = 2.81 s  ClockTime = 3 s

deltaT = 9.97838e-05
Time = 0.0692017

Qdot = -5.44998, T = 2660.04, p = 1.36789e+06, CH4 = 5.33195e-15
ExecutionTime = 2.81 s  ClockTime = 3 s

deltaT = 9.97838e-05
Time = 0.0693015

Qdot = -4.62507, T = 2660.04, p = 1.36789e+06, CH4 = 5.33195e-15
ExecutionTime = 2.81 s  ClockTime = 3 s

deltaT = 9.97838e-05
Time = 0.0694013

Qdot = -3.92503, T = 2660.04, p = 1.36789e+06, CH4 = 5.33195e-15
ExecutionTime = 2.81 s  ClockTime = 3 s

deltaT = 9.97838e-05
Time = 0.0695011

Qdot = -3.33092, T = 2660.04, p = 1.36789e+06, CH4 = 5.33195e-15
ExecutionTime = 2.81 s  ClockTime = 3 s

deltaT = 9.97838e-05
Time = 0.0696009

Qdot = -2.82677, T = 2660.04, p = 1.36789e+06, CH4 = 5.33195e-15
ExecutionTime = 2.82 s  ClockTime = 3 s

deltaT = 9.97838e-05
Time = 0.0697006

Qdot = -2.39888, T = 2660.04, p = 1.36789e+06, CH4 = 5.33195e-15
ExecutionTime = 2.82 s  ClockTime = 3 s

deltaT = 9.97838e-05
Time = 0.0698004

Qdot = -2.03579, T = 2660.04, p = 1.36789e+06, CH4 = 5.33195e-15
ExecutionTime = 2.82 s  ClockTime = 3 s

deltaT = 9.97838e-05
Time = 0.0699002

Qdot = -1.72767, T = 2660.04, p = 1.36789e+06, CH4 = 5.33195e-15
ExecutionTime = 2.82 s  ClockTime = 3 s

deltaT = 9.97838e-05
Time = 0.07

Qdot = -1.46616, T = 2660.04, p = 1.36789e+06, CH4 = 5.33195e-15
ExecutionTime = 2.82 s  ClockTime = 3 s

Number of steps = 2204
End

